
 OpenBabel03071213D

 23 26  0  0  0  0  0  0  0  0999 V2000
   33.0600   34.0330   46.7510 C   0  0  0  0  0
   35.0530   31.5580   44.4750 C   0  0  0  0  0
   36.8520   32.2030   40.1130 C   0  0  0  0  0
   34.0280   32.1470   47.7210 O   0  0  0  0  0
   39.5010   35.7610   37.7780 O   0  0  0  0  0
   37.7550   32.3500   45.7550 C   0  0  0  0  0
   36.7670   32.6740   46.9380 C   0  0  0  0  0
   39.1710   32.9800   43.0350 C   0  0  0  0  0
   35.3900   33.8110   42.3560 C   0  0  0  0  0
   39.7000   32.7870   41.5920 C   0  0  0  0  0
   37.3830   34.8850   38.4110 C   0  0  0  0  0
   34.9700   34.0640   43.8330 C   0  0  0  0  0
   36.7220   34.7500   39.8210 C   0  0  0  0  0
   39.5770   34.3190   39.6470 C   0  0  0  0  0
   37.6270   32.8100   43.1550 C   0  0  0  0  0
   37.1640   33.1570   44.5780 C   0  0  0  0  0
   36.9320   33.8170   42.1680 C   0  0  0  0  0
   35.5290   33.3640   46.2880 C   0  0  0  0  0
   34.1780   33.0980   46.9850 C   0  0  0  0  0
   38.8780   35.0520   38.5810 C   0  0  0  0  0
   38.9110   33.6080   40.5590 C   0  0  0  0  0
   35.6010   33.0210   44.7670 C   0  0  0  0  0
   37.3290   33.5900   40.6610 C   0  0  0  0  0
  1 19  1  0  0  0
  2 22  1  0  0  0
  3 23  1  0  0  0
  4 19  2  0  0  0
  5 20  2  0  0  0
  6  7  1  0  0  0
  6 16  1  0  0  0
  7 18  1  0  0  0
  8 10  1  0  0  0
  8 15  1  0  0  0
  9 12  1  0  0  0
  9 17  1  0  0  0
 10 21  1  0  0  0
 11 13  1  0  0  0
 11 20  1  0  0  0
 12 22  1  0  0  0
 13 23  1  0  0  0
 14 20  1  0  0  0
 14 21  2  0  0  0
 15 16  1  0  0  0
 15 17  1  0  0  0
 16 22  1  0  0  0
 17 23  1  0  0  0
 18 19  1  0  0  0
 18 22  1  0  0  0
 21 23  1  0  0  0
M  END
>  <MOLID> (1a28B1)
1a28B1

>  <SMILES_CANONICAL> (1a28B1)
O=C1CC[C@]2(C(=C1)CC[C@@H]1[C@@H]2CC[C@]2([C@H]1CC[C@@H]2C(=O)C)C)C	

>  <FINGERPRINT> (1a28B1)
0000000000000001000000000000000000000001000000000000000000100000000000000000000000000000000000000000000000000000000000000000000000000000000000000000000000000000000000000000000000000000000000000000000000000000000000001000000000000000000000000000010000000010000000010000000001000000000000000000000000010000100000000000000000000000000000000000000000000000010000000000000000010000000000000000010000000010100000000000100000000000000000000000000000000100000000000000000000000100000000000000000000000000000000000000000000000000000000000000000000000000000000000000000000000000001000000000001000000001001000000000000000000000000000000000000000000001000000000000000000000000000000000000000000000000000000101000000000000000000000001000000000000000000000000000000000000000000100000000000000100000000000000000000000000000000000000000000000000000000000000100000001000000000000001000000000000000000000000000000000000000000000000000000000000000000000010000000000000000000000000010010000000010000000000000000000000000000000000000000000000000

>  <MACCS166> (1a28B1)
000000000000000000000000010000000000000000000000010000000000000001000000000100000000000000000001001000001001000100110100000000111001000100011010111011010100001100111000

>  <OB_MW> (1a28B1)
314.225

>  <OB_logP> (1a28B1)
4.7235

>  <OB_PSA> (1a28B1)
34.14

>  <OB_MR> (1a28B1)
94.011

>  <OB_ATOMIC_CHARGES> (1a28B1)
0.072229372 0.0004197655 0.0040559379 -0.2960597945 -0.2913585916 0.0004426797 0.007321051 0.0043510564 0.0003153252 0.0220875801 0.0694488648 0.0004184108 0.011843523 0.0289456819 0.000628935 0.0004288399 0.0034592776 0.0576077724 0.1506715576 0.1725119894 -0.0419909925 0.0065280398 0.0156937187

>  <MCT_HBD> (1a28B1)
0

>  <MCT_HBA> (1a28B1)
2

>  <ENSEMBLE_TOTAL> (1a28B1)
2

>  <ENSEMBLE_COORDS> (1a28B1)
-3.8130 0.5617 3.8828 -1.8200 -1.9133 1.6068 -0.0210 -1.2683 -2.7552 -2.8450 -1.3243 4.8528 2.6280 2.2897 -5.0902 0.8820 -1.1213 2.8868 -0.1060 -0.7973 4.0698 2.2980 -0.4913 0.1668 -1.4830 0.3397 -0.5122 2.8270 -0.6843 -1.2762 0.5100 1.4137 -4.4572 -1.9030 0.5927 0.9648 -0.1510 1.2787 -3.0472 2.7040 0.8477 -3.2212 0.7540 -0.6613 0.2868 0.2910 -0.3143 1.7098 0.0590 0.3457 -0.7002 -1.3440 -0.1073 3.4198 -2.6950 -0.3733 4.1168 2.0050 1.5807 -4.2872 2.0380 0.1367 -2.3092 -1.2720 -0.4503 1.8988 0.4560 0.1187 -2.2072
-3.8226 0.3219 3.7739 -1.7067 -1.7314 1.5498 -0.1740 -1.2098 -2.6379 -2.6367 -1.5459 4.6431 2.6500 2.3093 -4.8643 0.8846 -0.9313 2.8607 -0.0797 -0.5918 3.9959 2.2273 -0.5285 0.1312 -1.4704 0.4384 -0.4990 2.6305 -0.8760 -1.2880 0.5250 1.3380 -4.3572 -1.8702 0.6759 0.9493 -0.1309 1.2382 -2.9990 2.6777 0.7142 -3.1364 0.7211 -0.5964 0.2877 0.2917 -0.2079 1.6772 0.0417 0.3570 -0.6961 -1.3277 0.0129 3.3430 -2.5933 -0.5084 3.9858 2.0024 1.5351 -4.1655 1.9363 0.0160 -2.2666 -1.2071 -0.3284 1.8664 0.4309 0.0991 -2.1540

>  <OB_ATOM_TYPES> (1a28B1)
C.3 C.3 C.3 O.2 O.2 C.3 C.3 C.3 C.3 C.3 C.3 C.3 C.3 C.2 C.3 C.3 C.3 C.3 C.2 C.2 C.2 C.3 C.3

>  <ENSEMBLE_RMSD> (1a28B1)
0.000 0.178

$$$$
