
 OpenBabel03071213D

 23 24  0  0  0  0  0  0  0  0999 V2000
   -1.4630    1.9270   10.7540 C   0  0  0  0  0
   -0.8780   10.9030   15.1780 C   0  0  0  0  0
   -5.4860   -0.5450   16.4610 N   0  0  0  0  0
   -5.4250    0.9940   18.2870 O   0  0  0  0  0
   -7.3980    0.8170   16.9950 O   0  0  0  0  0
   -6.1600    5.8730   13.2440 O   0  0  0  0  0
   -5.8580    6.6800   15.3730 O   0  0  0  0  0
   -1.5640    3.0110   11.8410 C   0  0  0  0  0
   -1.9150    9.7690   15.0590 C   0  0  0  0  0
   -2.0760    7.4260   14.7640 C   0  0  0  0  0
   -3.3490    7.4080   13.9350 C   0  0  0  0  0
   -3.3940    5.2050   13.0190 C   0  0  0  0  0
   -2.7760    2.8950   12.6490 N   0  0  0  0  0
   -1.3070    8.5960   14.5330 O   0  0  0  0  0
   -6.3790    3.5010   15.9790 S   0  0  0  0  0
   -4.3210    2.1520   15.2920 C   0  0  0  0  0
   -3.0550    3.8670   13.7100 C   0  0  0  0  0
   -3.8480    6.0650   14.0900 N   0  0  0  0  0
   -5.4450    2.0670   16.0490 C   0  0  0  0  0
   -4.1650    3.3450   14.6420 C   0  0  0  0  0
   -5.2160    4.2000   14.9310 C   0  0  0  0  0
   -5.9660    0.7500   16.9970 S   0  0  0  0  0
   -5.2950    5.8270   14.3680 S   0  0  0  0  0
  1  8  1  0  0  0
  2  9  1  0  0  0
  3 22  1  0  0  0
  4 22  2  0  0  0
  5 22  2  0  0  0
  6 23  2  0  0  0
  7 23  2  0  0  0
  8 13  1  0  0  0
  9 14  1  0  0  0
 10 11  1  0  0  0
 10 14  1  0  0  0
 11 18  1  0  0  0
 12 17  1  0  0  0
 12 18  1  0  0  0
 13 17  1  0  0  0
 15 19  1  0  0  0
 15 21  1  0  0  0
 16 19  2  0  0  0
 16 20  1  0  0  0
 17 20  1  0  0  0
 18 23  1  0  0  0
 19 22  1  0  0  0
 20 21  2  0  0  0
 21 23  1  0  0  0
M  END
>  <MOLID> (1a42A1)
1a42A1

>  <SMILES_CANONICAL> (1a42A1)
CCN[C@H]1CN(CCOCC)S(=O)(=O)c2c1cc(s2)S(=O)(=O)N	

>  <FINGERPRINT> (1a42A1)
0000000000000001000000001101000000100000010001000000000000000000000000010001000001101011000001001000011110111000000001100000000000000000000111000001000111000010000000000110000100000000000010000001010000000011000000000000000100000100000001000001000000001000000000011000110000010000110000000000000011001000101010000000000000000000011000000010001000000001111000000001110011000000110000000001101000000000000000100001111100001000000000100010001000000001100000000001100000010100000010000010000000101000100000010000100000011000000000000010000010000001000000100000000000100000000000000000000011100001000000000110000000001000000000001111001000000001000000000000000000000000000000000111100010100000100100001000000000010010000110000000000100000000011110110000000000000010011110000100001000000000111001000010000001100100000000000010000000000100000000000000000000001000000000001000000000000001000000000000110100001100000000000000011100000000001001000000111001000000010000100000000000000001000000000000001000000000110000010100101101100001

>  <MACCS166> (1a42A1)
000000000000000000001000010000011001000000000000011000100111100100100000101100101011010100100111011101011101101101011101110101101111100111011111011111101011111110111000

>  <OB_MW> (1a42A1)
383.064

>  <OB_logP> (1a42A1)
3.2776

>  <OB_PSA> (1a42A1)
163.8

>  <OB_MR> (1a42A1)
90.7991

>  <OB_ATOMIC_CHARGES> (1a42A1)
0.0202945251 0.0346479573 0.0397093781 -0.1498054211 -0.1498054211 -0.1522930144 -0.1522930144 0.0891275293 0.1423045522 0.1612400771 0.1278571321 0.1177183489 -0.2135120039 -0.3522340408 -0.0476591485 0.0256686972 0.1144363681 -0.1507296703 0.1554408047 0.0216068852 0.1502052843 0.0992018936 0.0688723012

>  <MCT_HBD> (1a42A1)
2

>  <MCT_HBA> (1a42A1)
8

>  <ENSEMBLE_TOTAL> (1a42A1)
50

>  <ENSEMBLE_COORDS> (1a42A1)
2.5691 -2.5397 -3.9482 3.1541 6.4363 0.4758 -1.4539 -5.0117 1.7588 -1.3929 -3.4727 3.5848 -3.3659 -3.6497 2.2928 -2.1279 1.4063 -1.4582 -1.8259 2.2133 0.6708 2.4681 -1.4557 -2.8612 2.1171 5.3023 0.3568 1.9561 2.9593 0.0618 0.6831 2.9413 -0.7672 0.6381 0.7383 -1.6832 1.2561 -1.5717 -2.0532 2.7251 4.1293 -0.1692 -2.3469 -0.9657 1.2768 -0.2889 -2.3147 0.5898 0.9771 -0.5997 -0.9922 0.1841 1.5983 -0.6122 -1.4129 -2.3997 1.3468 -0.1329 -1.1217 -0.0602 -1.1839 -0.2667 0.2288 -1.9339 -3.7167 2.2948 -1.2629 1.3603 -0.3342
2.5895 -2.8193 -3.4243 3.1232 6.7878 0.3586 -0.9036 -5.1213 1.4786 -1.5074 -3.6880 3.4923 -3.2633 -4.2272 1.7875 -2.1581 1.6805 -1.2353 -1.3952 2.3310 1.0710 2.2241 -2.2678 -2.0693 3.1403 5.2801 0.3303 1.9723 3.4448 -0.3516 0.7564 3.0150 -1.1378 0.7322 0.6593 -1.7101 0.8989 -1.6786 -2.1584 1.8544 4.8286 -0.0640 -2.4064 -0.8955 1.4570 -0.4887 -2.3348 0.4499 0.7768 -0.7183 -1.0714 0.3720 1.6629 -0.6868 -1.5424 -2.3959 1.2793 -0.3522 -1.0118 -0.1337 -1.2775 -0.1657 0.3498 -1.8902 -3.8673 2.1008 -1.2550 1.5015 -0.1125
2.7121 -2.2638 -3.6274 1.6685 5.7690 1.7153 -1.3071 -4.9818 1.5391 -1.1851 -3.4764 3.5889 -3.3406 -3.6793 2.3293 -1.9565 1.7827 -1.2592 -0.8447 2.4930 0.8801 2.1340 -2.4993 -2.2534 2.4430 4.7976 0.8601 2.1652 3.4190 -0.9351 0.9914 2.8389 -1.6848 0.7737 0.4490 -1.9848 0.7992 -1.9259 -2.2118 1.7613 4.6584 -0.3755 -2.1583 -0.5985 1.5554 -0.4754 -2.2721 0.4925 0.8094 -0.8622 -1.2164 0.6094 1.5693 -1.0363 -1.4716 -2.1892 1.3887 -0.2533 -0.9972 -0.1697 -1.0520 -0.0402 0.3324 -1.8904 -3.5745 2.3217 -0.9323 1.5836 -0.2490
2.4525 -3.3824 -1.9960 2.9436 5.7027 1.5815 -0.8744 -5.0181 1.3035 -0.9853 -3.5921 3.4093 -3.0739 -4.0232 2.0965 -2.3317 1.7317 -1.2464 -1.3413 2.4745 0.9403 2.2888 -1.9280 -2.3616 3.0003 4.5984 0.5563 1.8746 3.5860 -1.1452 0.4899 3.1471 -1.5553 0.5423 0.7597 -1.9774 0.8784 -1.5871 -2.2844 1.7535 4.5560 -0.1179 -2.2824 -0.7810 1.4675 -0.3904 -2.1892 0.3720 0.7326 -0.5651 -1.2569 0.2381 1.8097 -0.9838 -1.4005 -2.2664 1.2528 -0.3207 -0.8720 -0.2380 -1.2382 -0.0413 0.2853 -1.6506 -3.7304 2.1242 -1.3052 1.6103 -0.2264
2.2653 -3.4753 -2.3925 3.7470 5.9285 0.8473 -2.1422 -4.8887 1.0597 -0.1892 -4.2108 2.5832 -2.5266 -3.5336 3.2032 -2.1812 1.4263 -1.7877 -2.0456 2.2796 0.5755 2.4005 -2.0139 -2.0438 3.0775 4.5934 0.6406 0.9562 3.9682 0.0838 0.4098 3.2335 -1.1160 0.8503 0.9150 -1.6397 1.1018 -1.3868 -2.2121 2.0613 4.7512 -0.3362 -2.4820 -1.0030 1.1432 -0.2684 -2.1797 0.4499 0.8858 -0.4977 -1.0778 0.1471 1.8348 -0.7204 -1.3658 -2.3379 1.2081 -0.2877 -0.9038 -0.2449 -1.3745 -0.1845 0.0781 -1.5110 -3.7559 2.1892 -1.5284 1.4410 -0.4906
2.6868 -2.9765 -1.7625 3.6531 5.8388 0.8000 -0.3505 -4.9159 1.8275 -2.1230 -3.8483 3.3061 -2.7157 -4.5171 0.9640 -2.4827 1.7236 -0.9167 -1.4172 2.3941 1.2583 2.2902 -1.6416 -2.3424 3.3805 4.7061 -0.1569 1.7525 3.5577 -1.2534 0.2808 3.2244 -1.2866 0.3687 0.8532 -1.8127 0.8534 -1.4675 -2.1975 1.9756 4.5271 -0.2440 -2.2759 -0.9113 1.6562 -0.4188 -2.2309 0.4012 0.6418 -0.4847 -1.1462 0.0951 1.8566 -0.7606 -1.3668 -2.3640 1.3422 -0.3718 -0.8732 -0.1157 -1.2827 -0.0886 0.4846 -1.7623 -3.9468 1.9015 -1.4111 1.5848 0.0536
2.8580 -3.2450 -2.5051 2.0029 6.1389 1.5073 -0.8156 -4.9128 1.5774 -1.3761 -3.4080 3.5452 -3.1658 -3.9881 1.8910 -1.9837 2.0861 -0.8951 -0.4244 2.4380 1.0469 1.5513 -2.5095 -2.6658 2.2967 4.7396 1.0273 2.1070 3.3467 -0.7760 1.0471 2.8202 -1.7163 0.3083 0.5828 -2.2944 1.5287 -1.4195 -1.7063 1.6221 4.5535 -0.2068 -1.8214 -0.5625 1.7781 -0.8188 -2.2783 0.0989 0.1977 -0.8311 -1.7413 0.5307 1.5438 -1.1850 -1.4422 -2.1899 1.2850 -0.5488 -0.9598 -0.4516 -1.0380 0.0126 0.3345 -1.7852 -3.6289 2.1677 -0.8304 1.6710 -0.1157
2.0442 -3.3677 -2.3620 4.5129 5.1067 -0.2294 -0.0596 -4.7652 1.8971 -2.1560 -3.9584 3.0917 -2.3008 -4.6619 0.6885 -2.4749 1.6042 -1.2453 -1.9539 2.3441 1.1028 2.1935 -2.0590 -1.6270 3.0896 5.1091 0.2679 1.0752 4.0712 0.0250 0.1560 3.4069 -0.9709 0.5746 1.0922 -1.5671 1.1182 -1.1784 -2.0521 2.3145 4.3179 -0.6183 -2.4383 -1.0321 1.4017 -0.2670 -2.1084 0.4633 0.8011 -0.2790 -0.9498 -0.0159 1.9990 -0.5601 -1.3182 -2.3608 1.2558 -0.3134 -0.7628 -0.0733 -1.3855 -0.0903 0.3786 -1.5812 -3.9884 1.7564 -1.6154 1.5611 -0.0735
2.5951 -2.9107 -3.2028 3.7729 3.5797 1.6092 -0.2274 -4.5881 1.9065 -0.9131 -2.9000 3.6911 -2.6749 -4.0088 2.2959 -2.3668 1.4427 -1.8591 -2.0394 2.5052 0.4021 2.3744 -1.8594 -2.1462 2.3048 3.6968 1.2818 0.8253 4.1476 -0.3977 0.2899 3.3096 -1.5373 0.6704 0.9580 -1.9304 1.0093 -1.3794 -2.2686 2.1659 3.7657 -0.1288 -2.4114 -0.7410 1.2424 -0.2455 -1.9574 0.4767 0.8011 -0.3820 -1.2264 0.0357 1.9459 -1.0356 -1.3032 -2.0813 1.2919 -0.3143 -0.7288 -0.2923 -1.3820 0.0074 0.0567 -1.3595 -3.3996 2.4008 -1.6073 1.5782 -0.6298
1.6417 -2.6014 -3.9814 1.4251 6.5834 1.4048 -3.0933 -4.1915 1.3862 -0.7788 -4.5349 2.4453 -2.4474 -3.0446 3.5935 -1.4415 1.2787 -1.9895 -1.2896 2.3770 0.2695 0.8243 -2.2599 -2.7615 2.2432 5.4869 0.7702 2.1561 3.4424 -0.2332 1.3597 2.7896 -1.3388 1.4843 0.3816 -1.6008 1.7349 -2.0535 -1.6440 1.3584 4.4623 0.3469 -2.2425 -0.7407 1.1274 -0.1753 -2.2739 0.7393 1.3112 -0.9196 -0.8355 0.8702 1.4920 -0.8385 -1.3383 -2.2038 1.4058 0.0438 -1.0828 -0.0620 -0.9564 -0.1984 0.0872 -1.8402 -3.5466 2.3745 -0.8496 1.3575 -0.6658
3.2220 -2.2760 -2.8583 3.5175 3.2847 1.3759 -0.6004 -4.8658 1.5143 -0.9077 -3.3331 3.5280 -2.9143 -4.0895 2.2310 -2.6181 1.6189 -1.3766 -1.8641 2.4893 0.8571 2.6492 -1.4365 -1.7443 3.2111 3.9683 0.0668 1.4996 3.7606 -1.4208 0.0544 3.3296 -1.5272 0.4083 0.9395 -1.8627 1.2157 -1.3145 -1.9514 1.8022 4.0648 -0.0684 -2.5165 -0.8520 1.3421 -0.3486 -2.0236 0.5109 0.7372 -0.2919 -1.0353 -0.0972 1.9815 -0.9451 -1.4341 -2.2141 1.2781 -0.3790 -0.7228 -0.1346 -1.4474 -0.0070 0.2581 -1.5344 -3.6324 2.2512 -1.6555 1.6220 -0.2887
3.4703 -1.5584 -2.7689 4.1304 5.7877 -0.4445 -3.2449 -4.5298 1.6131 -0.7221 -4.9477 1.6097 -1.7508 -3.6582 3.5054 -2.3921 1.4318 -1.4755 -2.0509 2.1926 0.8974 2.5894 -1.8547 -1.5804 3.1728 4.8707 0.2743 1.1581 3.8439 -0.0203 0.2451 3.1852 -1.0259 0.6606 0.8533 -1.5325 1.2344 -1.4366 -1.8954 2.3370 4.2559 -0.6938 -2.6128 -1.1482 1.2271 -0.3767 -2.2770 0.5290 0.8181 -0.5006 -0.8607 0.0138 1.7933 -0.5940 -1.5138 -2.4994 1.2075 -0.3721 -0.9572 -0.0776 -1.4722 -0.2609 0.2548 -1.6891 -3.9758 2.0893 -1.6327 1.3902 -0.2381
2.8607 -2.3047 -3.4045 2.2179 2.9824 1.7888 -0.5233 -4.7030 1.8254 -1.2299 -3.1534 3.7132 -2.9364 -3.9383 2.0550 -2.2922 1.6583 -1.4477 -1.4131 2.6646 0.6812 2.2810 -2.1310 -2.0233 2.6605 4.0668 0.8338 1.8133 3.7533 -1.2682 0.5067 3.1834 -1.7720 0.6397 0.7710 -2.0077 0.9408 -1.5854 -2.1557 1.5749 4.3915 -0.0224 -2.2492 -0.5723 1.4850 -0.3006 -2.0110 0.5424 0.8186 -0.4995 -1.1921 0.2669 1.8832 -1.1119 -1.3279 -2.0472 1.4034 -0.2367 -0.7398 -0.1558 -1.1836 0.1058 0.2843 -1.5908 -3.4665 2.3405 -1.2973 1.6918 -0.3917
2.4786 -2.8068 -3.7517 1.3401 4.0845 2.5779 -0.9918 -4.6616 1.8582 -0.5168 -2.8591 3.6018 -2.8814 -3.3154 2.9060 -2.0193 1.6783 -1.8381 -1.3415 2.6560 0.3790 2.1541 -2.3521 -2.3507 2.0775 3.5363 1.3820 2.1073 3.5095 -0.9003 0.9328 3.0395 -1.7285 0.8685 0.6412 -2.1065 0.8383 -1.7362 -2.3653 1.6188 4.2212 0.2264 -2.2309 -0.4558 1.3015 -0.3360 -2.0265 0.4617 0.8363 -0.6828 -1.3599 0.4889 1.7383 -1.1941 -1.3488 -1.9573 1.3414 -0.2628 -0.8276 -0.3555 -1.1751 0.0820 0.0259 -1.4775 -3.1736 2.5575 -1.1592 1.6678 -0.6687
1.8575 -2.5316 -3.8591 2.3778 6.7405 1.2359 -3.5535 -3.8331 2.2886 -1.3891 -4.9680 1.5651 -1.3837 -3.4830 3.5900 -1.5827 1.2563 -1.9059 -1.5551 2.2512 0.4053 0.9672 -2.1220 -2.7123 2.6281 5.6838 0.1884 1.9665 3.5216 -0.1137 1.0900 2.8886 -1.1681 1.3815 0.5019 -1.4462 1.7997 -1.9065 -1.5393 1.4915 4.8381 0.1253 -2.3967 -0.9633 1.0315 -0.2230 -2.3521 0.6940 1.2670 -0.8288 -0.7187 0.6799 1.5561 -0.6836 -1.4442 -2.4029 1.2542 -0.0248 -1.1023 -0.0199 -1.0825 -0.2865 0.1138 -1.8404 -3.7620 2.2377 -1.0309 1.3040 -0.5631
3.1360 -1.4332 -3.0398 3.1614 5.5541 -2.3644 -0.7739 -5.1922 1.3202 -2.4834 -4.2810 2.9685 -3.0823 -4.4522 0.5359 -2.2953 1.7737 -0.6085 -1.5722 2.2258 1.7538 2.5328 -1.6549 -1.6717 3.2204 5.1230 -0.9190 1.7502 3.7532 0.1751 0.4597 3.2843 -0.4582 0.6769 0.9712 -1.1393 1.1258 -1.2954 -1.7288 2.7520 3.7877 -0.8306 -2.4950 -1.0883 1.6696 -0.4771 -2.3072 0.5799 0.8354 -0.4369 -0.5870 0.2262 1.8790 -0.0625 -1.5760 -2.5255 1.3210 -0.3223 -0.9039 0.2455 -1.3143 -0.1703 0.7762 -2.1069 -4.1459 1.5713 -1.3782 1.5349 0.4931
3.1513 -1.5928 -3.3223 3.7590 2.7376 1.1209 -0.3624 -4.6489 1.9544 -0.9239 -2.9037 3.7218 -2.7707 -3.9747 2.4108 -2.4205 1.4637 -1.8036 -2.0411 2.4752 0.4684 2.4485 -1.8088 -2.0049 2.4525 3.4889 1.0667 0.8177 4.1163 -0.3950 0.2532 3.2807 -1.5212 0.6181 0.9163 -1.8972 1.0573 -1.4178 -2.1573 2.2087 3.8587 -0.2818 -2.4886 -0.7788 1.2432 -0.2973 -1.9852 0.5310 0.7752 -0.4000 -1.1543 0.0011 1.9205 -1.0081 -1.3740 -2.1144 1.3229 -0.3576 -0.7587 -0.2453 -1.4366 -0.0260 0.0779 -1.4322 -3.4092 2.4572 -1.6378 1.5608 -0.5845
3.2743 -1.4533 -3.0068 3.6280 3.1769 1.2919 -0.2959 -4.6530 1.9463 -1.3762 -3.1724 3.7068 -2.8056 -4.2236 1.9388 -2.5571 1.7111 -1.2619 -1.3752 2.5668 0.7859 2.2651 -1.9644 -2.0081 2.4608 3.9962 0.8003 0.8747 4.0232 -0.8350 0.2938 3.0780 -1.8619 0.2210 0.6828 -2.2176 1.8032 -0.8461 -1.2035 2.2163 3.6565 -0.5560 -2.2130 -0.6302 1.6210 -0.5752 -2.1618 0.3017 0.3921 -0.6462 -1.4996 0.0293 1.7696 -1.2291 -1.4126 -2.1523 1.3513 -0.5060 -0.8547 -0.3249 -1.3296 0.0228 0.2696 -1.5668 -3.5667 2.3199 -1.4452 1.6408 -0.3295
2.0541 -3.5504 -2.4522 2.3174 4.0202 2.3780 0.0569 -4.3250 2.2585 -1.6618 -3.0585 3.6414 -2.4011 -4.2821 1.5830 -2.3279 1.7538 -1.5113 -1.4463 2.6429 0.6707 2.1518 -2.0463 -2.3947 2.7168 3.7488 0.9494 1.8843 3.6835 -1.1719 0.5304 3.2549 -1.6900 0.5717 0.8649 -2.1301 0.8064 -1.4977 -2.4263 1.7172 4.2896 0.1000 -2.1801 -0.5789 1.4317 -0.2752 -1.9945 0.3692 0.7335 -0.4615 -1.4062 0.2308 1.9153 -1.1492 -1.2114 -2.0212 1.3310 -0.2889 -0.7301 -0.3461 -1.2195 0.1031 0.1492 -1.4194 -3.4540 2.2638 -1.3396 1.7232 -0.4477
2.6905 -2.4493 -3.3972 4.4915 4.8743 0.3132 -1.3206 -3.5290 3.6995 -2.9932 -4.3129 1.9175 -0.5553 -4.8429 1.6342 -2.3970 1.4186 -1.5396 -2.1440 2.2591 0.8173 2.3880 -1.7439 -2.0999 3.0040 5.1125 0.2619 1.0558 3.9390 0.0708 0.1994 3.2876 -0.9891 0.6453 0.9795 -1.5741 1.0040 -1.3107 -2.1367 2.3914 4.0208 -0.4062 -2.4960 -1.0543 1.3317 -0.2962 -2.1782 0.5136 0.7781 -0.4252 -1.0024 -0.0167 1.8763 -0.6049 -1.3737 -2.3859 1.2898 -0.3507 -0.8721 -0.1234 -1.4374 -0.1828 0.2593 -1.5992 -3.9245 2.0502 -1.6679 1.4442 -0.2854
2.2122 -3.4611 -1.8197 2.3640 2.9458 1.7246 -0.7677 -4.8047 1.2170 -0.5164 -3.3492 3.3023 -2.8044 -3.8032 2.3781 -2.3780 1.8179 -1.4008 -1.4388 2.6337 0.7819 2.3785 -1.9673 -1.9485 2.6825 4.1226 0.8342 1.7121 3.8859 -1.2205 0.3897 3.3420 -1.7087 0.5637 0.9444 -2.0716 1.0866 -1.3842 -2.2715 1.5291 4.4420 0.0726 -2.2562 -0.6545 1.3479 -0.2528 -1.9701 0.3448 0.8227 -0.3363 -1.2955 0.1828 2.0059 -1.1184 -1.2840 -2.0908 1.1954 -0.2464 -0.6731 -0.3031 -1.2260 0.1155 0.1715 -1.3970 -3.5152 2.1581 -1.3563 1.7540 -0.3700
3.1269 -1.6236 -3.0786 3.8410 5.1639 1.2158 -1.3417 -3.3121 3.7518 -3.0189 -4.3235 2.0910 -0.5661 -4.7908 1.8068 -2.4599 1.5904 -1.3226 -1.7610 2.2902 0.9889 2.1781 -2.1273 -2.0192 3.3254 4.8599 -0.1685 1.7962 3.4473 -1.0885 0.3193 3.1585 -1.2196 0.5003 0.7998 -1.7872 0.8771 -1.5138 -2.2273 1.9883 4.3991 -0.0558 -2.5044 -1.0050 1.3756 -0.4529 -2.2708 0.3984 0.6601 -0.5665 -1.1425 0.0616 1.7757 -0.7652 -1.4880 -2.4134 1.2416 -0.4470 -0.9529 -0.2129 -1.4450 -0.1878 0.2606 -1.6393 -3.8757 2.1536 -1.5501 1.4782 -0.1961
1.9374 -2.0240 -3.8699 3.0108 2.4445 1.4937 -0.6173 -4.6576 1.9895 -0.7881 -2.8140 3.7537 -2.8665 -3.6372 2.6173 -1.7902 1.1102 -2.3339 -2.1878 2.3144 -0.1580 1.0490 -1.7686 -2.6795 2.2481 3.7421 1.3932 0.7695 4.1952 -0.2874 0.4717 3.2914 -1.4628 1.1900 0.9822 -1.5646 1.8858 -1.3500 -1.5644 2.1510 4.0990 0.0229 -2.4534 -0.8762 0.8653 -0.0507 -1.8734 0.7991 1.2181 -0.3214 -0.7822 0.2391 1.9289 -0.9468 -1.2679 -2.0639 1.3354 -0.0464 -0.7331 -0.1000 -1.2340 -0.1060 -0.1094 -1.4605 -3.2728 2.5506 -1.4077 1.3902 -0.9618
3.5782 -1.5238 -2.5355 4.1766 5.5369 -1.0822 -3.3777 -4.3427 2.1229 -1.1976 -5.1244 1.0602 -1.1278 -3.8787 3.2390 -2.4305 1.5769 -1.2580 -2.0086 2.1366 1.1556 2.5410 -1.8532 -1.4906 3.0902 5.1612 -0.1051 1.2310 3.8567 0.1316 0.2038 3.2658 -0.8013 0.6248 0.9631 -1.4305 1.2663 -1.2900 -1.9050 2.4460 3.9943 -0.5886 -2.6326 -1.2020 1.2052 -0.4185 -2.3059 0.4072 0.8029 -0.4231 -0.8305 -0.0001 1.8521 -0.4294 -1.5592 -2.5644 1.0679 -0.3934 -0.9400 -0.0916 -1.4845 -0.2602 0.2978 -1.6978 -4.0612 1.9146 -1.6326 1.4260 -0.0535
2.7911 -2.6488 -2.1829 4.3606 3.1236 -0.9297 -0.0192 -4.7057 1.6111 -1.4838 -3.5465 3.3357 -2.5433 -4.6008 1.3255 -2.5536 1.7031 -1.4012 -2.3558 2.3032 1.0336 2.5934 -1.2425 -1.6748 3.2020 3.2974 0.0204 1.0776 4.1203 0.1984 -0.0492 3.6053 -0.6683 0.5184 1.3646 -1.4015 1.2274 -0.8429 -1.9668 2.2608 4.1707 -0.5849 -2.6246 -1.0744 1.1453 -0.2945 -1.9716 0.4182 0.7619 -0.0300 -0.8524 -0.2130 2.1643 -0.3969 -1.4050 -2.3159 1.0882 -0.3991 -0.6272 -0.1215 -1.5554 -0.0429 0.2356 -1.4593 -3.8276 1.9093 -1.8375 1.6243 -0.1404
3.0348 -2.7010 -1.8590 3.9627 3.0122 -0.8442 -1.9561 -4.8053 0.5981 -0.1550 -4.3087 2.3593 -2.5647 -3.8506 2.8991 -2.4677 1.5428 -1.5128 -2.3079 2.3340 0.8691 2.7531 -1.2501 -1.5568 3.1364 3.7849 0.1547 0.8940 4.2144 0.0828 -0.0143 3.5349 -0.9154 0.6128 1.2558 -1.4505 1.3543 -0.9835 -1.8458 2.1313 4.4922 -0.5553 -2.5505 -1.0378 1.2140 -0.2218 -1.9801 0.5419 0.8560 -0.0970 -0.8032 -0.1468 2.1188 -0.5220 -1.3371 -2.2857 1.2246 -0.3084 -0.6549 -0.0470 -1.4695 -0.0552 0.2651 -1.4701 -3.8530 1.9449 -1.7657 1.5730 -0.2417
2.4194 -3.1767 -2.1246 2.8718 2.0265 0.6797 -0.4570 -4.7414 1.4148 -0.5292 -3.1080 3.3737 -2.6730 -3.9049 2.3473 -2.4048 1.6935 -1.6720 -1.9786 2.5322 0.6617 2.4882 -1.6748 -1.9679 2.7108 3.4991 0.9802 0.8372 4.2487 -0.1091 0.2492 3.5189 -1.2981 0.6406 1.1824 -1.8672 1.1725 -1.1221 -2.2565 2.2533 4.1627 -0.1882 -2.4111 -0.7740 1.1741 -0.2161 -1.9006 0.3542 0.8421 -0.1716 -1.2013 0.0220 2.1165 -0.9033 -1.2893 -2.1045 1.1353 -0.2861 -0.6168 -0.3209 -1.3715 0.0755 0.0650 -1.2965 -3.4649 2.1920 -1.5938 1.7044 -0.4691
1.3918 -3.9324 -3.0700 0.9748 5.5713 1.9133 -0.8028 -3.3228 3.5288 -3.1373 -3.5559 2.4784 -1.1928 -4.7618 1.4397 -1.7415 2.0228 -1.2079 -0.5950 2.4876 0.9815 1.7961 -2.5338 -2.6764 2.1720 4.9554 1.2314 2.2920 3.4620 -0.4942 1.3155 2.9108 -1.5048 0.8763 0.6052 -2.0814 0.5960 -1.7200 -2.5766 1.8580 4.7655 -0.1379 -1.9795 -0.5659 1.4954 -0.4411 -2.2337 0.2240 0.7914 -0.7861 -1.4758 0.8087 1.6185 -1.0068 -1.3557 -2.1652 1.2041 -0.2189 -0.9335 -0.3825 -0.9382 0.0223 0.2294 -1.7343 -3.5913 2.1070 -0.7352 1.6811 -0.2187
3.4973 -0.9084 -2.8231 3.1962 3.4285 1.5981 -3.0388 -4.2443 2.0596 -0.5056 -4.5949 2.0180 -1.5104 -3.1014 3.7711 -2.5265 1.3754 -1.6435 -1.9645 2.3982 0.5825 2.7893 -1.5243 -1.6404 3.0872 3.7771 0.1346 1.5222 3.6561 -1.5175 0.0985 3.1789 -1.6971 0.5337 0.7898 -1.8945 1.3542 -1.4536 -1.8634 1.7232 4.0286 -0.1634 -2.5106 -0.9124 1.2576 -0.2726 -2.0659 0.6038 0.8327 -0.4034 -1.0024 -0.0562 1.8554 -1.0602 -1.3838 -2.2381 1.3387 -0.3143 -0.8137 -0.1324 -1.4210 -0.1097 0.1622 -1.4853 -3.5948 2.4054 -1.6452 1.4768 -0.4935
1.9063 -3.6955 -2.7796 1.4701 4.9831 2.1427 -1.7180 -3.1626 3.7454 -2.8680 -4.0611 1.6409 -0.4215 -4.5033 2.0000 -2.0817 1.9150 -1.2209 -0.9293 2.5735 0.9139 2.0837 -2.2232 -2.5047 1.9711 4.9719 0.7196 2.1836 3.5743 -1.0868 0.8398 3.1387 -1.6315 0.6721 0.7625 -2.1187 0.7709 -1.6006 -2.4799 2.1450 3.6187 0.3313 -2.0043 -0.5996 1.5244 -0.3018 -2.1306 0.2918 0.7902 -0.5896 -1.4333 0.4987 1.8081 -1.0910 -1.1975 -2.1249 1.2923 -0.2054 -0.8255 -0.3399 -1.0260 0.0630 0.2458 -1.5638 -3.6103 2.0942 -1.0142 1.7178 -0.2561
2.0522 -2.5480 -3.0898 3.9959 4.6075 -1.3332 -2.2627 -3.7537 3.3227 -2.6702 -4.6837 0.9672 -0.3512 -4.7357 1.9325 -2.0262 1.4366 -1.6478 -2.2966 2.1572 0.7456 1.3493 -1.3562 -2.4898 3.0121 5.0196 -0.2659 1.0555 4.1010 0.4935 0.2520 3.4311 -0.5989 1.0072 1.1758 -1.0451 1.9766 -1.0593 -1.2116 2.4348 3.8422 0.2760 -2.5663 -1.2230 0.9423 -0.1434 -2.1333 0.6792 1.1257 -0.1976 -0.4084 0.0764 2.0070 -0.2520 -1.3587 -2.4621 1.1463 -0.1381 -0.7924 0.1222 -1.3430 -0.2083 0.2319 -1.6239 -4.0581 1.7560 -1.5575 1.4332 -0.2732
3.2798 -1.5359 -2.8598 3.7540 5.3107 -2.0508 -2.0554 -4.1502 3.2632 -3.1678 -4.5156 0.9805 -0.7227 -5.0283 1.2614 -2.3810 1.7444 -0.8203 -1.8278 2.1729 1.5916 2.3787 -1.7988 -1.6791 3.1742 5.1017 -0.6737 1.5839 3.7904 0.3250 0.3310 3.3495 -0.3973 0.6325 1.0844 -1.2086 1.0988 -1.1482 -1.9173 2.6538 3.7829 -0.6084 -2.5124 -1.1620 1.5033 -0.4304 -2.2799 0.4185 0.7829 -0.3542 -0.7395 0.1030 1.9180 -0.1038 -1.5055 -2.5440 1.1786 -0.3700 -0.8742 0.0607 -1.3977 -0.1893 0.5892 -1.8747 -4.1904 1.5546 -1.5274 1.5162 0.3319
2.5122 -1.7276 -3.4286 4.2774 3.8541 0.3982 -2.9707 -3.6557 3.0584 -1.6306 -4.8411 1.2391 -0.4350 -3.8408 3.2056 -1.9883 1.0510 -2.1183 -2.4828 2.1146 0.1060 1.4202 -1.5793 -2.3991 2.8033 3.8746 0.7167 0.7201 4.2048 -0.1555 0.0873 3.3410 -1.2216 1.0002 1.1009 -1.2905 2.0234 -1.1083 -1.1616 2.1067 4.3225 -0.4356 -2.5633 -1.1879 0.8567 -0.0839 -1.9728 0.8668 1.1372 -0.1772 -0.4807 -0.0339 1.9691 -0.6897 -1.3035 -2.2907 1.3315 -0.1213 -0.7489 0.0861 -1.3592 -0.2300 0.0430 -1.4873 -3.7654 2.2056 -1.6282 1.2931 -0.7323
2.7913 -3.1559 -1.9219 2.6561 4.0775 2.0174 -2.9648 -3.7346 2.8098 -1.2773 -4.7749 1.2174 -0.4600 -3.5504 3.2464 -2.4541 1.6814 -1.3671 -1.5162 2.5371 0.8055 2.5724 -1.6710 -2.0784 2.7954 3.8538 0.5330 1.6241 3.8200 -1.4139 0.2451 3.2855 -1.7246 0.4933 0.8884 -2.0619 1.1491 -1.4173 -2.2259 1.6273 4.3501 -0.1001 -2.2717 -0.7698 1.3813 -0.2698 -2.0634 0.3443 0.7902 -0.3773 -1.2730 0.0969 1.9486 -1.1137 -1.2840 -2.1930 1.2188 -0.2705 -0.7534 -0.2867 -1.2576 0.0189 0.2026 -1.3919 -3.6521 2.1346 -1.4232 1.6517 -0.3440
1.7451 -2.3432 -4.0928 0.7010 4.3064 2.4784 -3.1696 -3.6500 2.3574 -0.7088 -4.3389 2.4074 -1.4860 -2.4550 3.8766 -1.5060 1.2448 -2.2673 -1.4543 2.4640 -0.0676 0.9093 -2.1417 -2.8531 1.8050 3.9444 1.5169 2.1552 3.5905 -0.7094 1.1869 2.9400 -1.6698 1.4620 0.5360 -1.7787 1.8019 -1.8798 -1.7342 1.4171 4.3688 0.2195 -2.2427 -0.6446 0.9564 -0.0715 -2.0556 0.7083 1.3370 -0.7383 -0.9613 0.7688 1.6468 -1.0948 -1.2577 -2.0313 1.3378 0.0712 -0.9260 -0.1914 -0.9801 -0.0944 -0.1087 -1.5410 -3.1659 2.6111 -0.9429 1.4228 -0.9407
1.8713 -3.6197 -2.2680 1.9653 3.5612 2.2573 -0.3786 -3.2134 3.4747 -2.7672 -3.6185 2.6393 -0.8404 -4.6573 1.4056 -2.2828 1.9070 -1.3144 -1.1937 2.6288 0.8309 2.1058 -2.1288 -2.3561 2.6746 3.9054 0.9713 1.9111 3.7396 -1.1722 0.5699 3.2795 -1.6934 0.5360 0.8933 -2.1726 0.8191 -1.4680 -2.5098 1.7099 4.4106 0.0608 -2.0944 -0.5919 1.4604 -0.3177 -2.0387 0.2336 0.7209 -0.4458 -1.4771 0.2948 1.9348 -1.1509 -1.2336 -2.0846 1.2135 -0.2863 -0.7345 -0.4062 -1.1560 0.1126 0.1710 -1.4085 -3.5375 2.1375 -1.2196 1.7657 -0.3351
1.1962 -2.4824 -4.2938 1.0091 4.8635 2.3962 -1.0593 -2.7541 3.9156 -3.1583 -3.3881 2.5801 -0.9867 -4.5482 2.0804 -1.5431 1.4488 -1.9921 -1.1453 2.5241 0.2468 0.4977 -2.0797 -3.0190 2.0241 4.1954 1.5026 2.3238 3.4552 -0.6348 1.3455 2.8535 -1.6159 1.3798 0.4435 -1.8583 1.4926 -1.9916 -1.9608 1.6364 4.4123 0.1551 -2.1571 -0.5606 1.1559 -0.1795 -2.1619 0.6115 1.2149 -0.8587 -1.0910 0.8686 1.5737 -1.0567 -1.2950 -2.0607 1.3534 0.0142 -0.9788 -0.2094 -0.9343 -0.0576 0.0252 -1.7140 -3.3430 2.4371 -0.8301 1.4954 -0.7281
3.1655 -2.3866 -1.0890 3.9581 2.8821 -0.0527 -2.6029 -4.6496 1.1815 -0.1123 -4.5017 1.8038 -1.8236 -3.5202 3.3584 -2.7049 1.7213 -1.2428 -1.7317 2.4222 0.9647 2.7475 -1.1165 -1.7870 2.7371 3.5968 0.4690 0.6993 4.1439 -0.4031 0.0649 3.3280 -1.5046 0.2516 0.9680 -2.0447 1.9238 -0.3418 -0.8768 2.0979 4.2166 -0.6355 -2.3854 -0.9271 1.3723 -0.4105 -2.1180 0.1805 0.5559 -0.3609 -1.3763 -0.1388 1.9521 -1.0103 -1.3703 -2.3167 1.0972 -0.4545 -0.7714 -0.3556 -1.4487 -0.0483 0.1878 -1.3625 -3.7897 2.0085 -1.6555 1.6172 -0.2454
3.3012 -2.2961 -1.0836 3.9878 3.7866 -2.3180 -1.9967 -4.8565 -0.0138 -0.4854 -4.6698 2.0529 -2.9506 -4.2556 2.2867 -2.5349 1.7711 -0.8724 -2.0720 2.2285 1.5547 2.8564 -0.8915 -1.4071 3.3441 3.7203 -0.9553 1.3484 4.0623 0.1035 0.0299 3.5566 -0.4341 0.5495 1.2899 -1.1295 1.4152 -0.8915 -1.5958 2.1441 4.4765 -0.9966 -2.6183 -1.1667 1.3173 -0.3399 -2.1120 0.4935 0.8367 -0.0791 -0.5356 -0.0966 2.1252 -0.0952 -1.4839 -2.4686 1.1007 -0.3429 -0.7007 0.1469 -1.4717 -0.0980 0.5590 -1.7237 -4.1290 1.5204 -1.6968 1.5982 0.3015
3.4289 -0.9794 -2.8472 4.5420 3.8233 -0.9436 -2.1199 -3.6994 3.5310 -2.7214 -4.6479 1.2261 -0.3267 -4.6661 1.9868 -2.5587 1.5257 -1.3139 -2.2037 2.2351 1.0716 2.6580 -1.3809 -1.6138 3.2958 3.6027 -0.1217 1.0543 4.0187 0.0074 -0.0037 3.3972 -0.8736 0.5129 1.0991 -1.4481 1.2451 -1.1377 -1.8531 2.2136 4.2433 -0.7796 -2.5959 -1.1331 1.3070 -0.3258 -2.1399 0.5333 0.7704 -0.2509 -0.7997 -0.1580 1.9852 -0.4748 -1.4201 -2.4166 1.2613 -0.3852 -0.7968 -0.0205 -1.5153 -0.1659 0.3452 -1.6170 -4.0040 1.9156 -1.7696 1.4884 -0.0955
2.6103 -2.8753 -2.0858 3.7831 5.3875 -2.2684 -1.4571 -4.4168 2.9251 -3.3161 -4.4367 1.1529 -0.9787 -5.0800 0.4922 -2.4049 1.8793 -0.4903 -1.6732 2.1022 1.9034 2.5334 -1.4089 -1.7406 3.4662 4.4985 -1.0914 1.7397 3.7897 0.2265 0.3274 3.4346 -0.1740 0.5855 1.2130 -1.1148 1.1550 -0.9738 -1.8902 2.1785 4.8485 -0.6100 -2.4907 -1.2168 1.4874 -0.4188 -2.2492 0.3021 0.8018 -0.2296 -0.6900 0.1205 1.9909 0.0541 -1.5140 -2.5759 1.0063 -0.3383 -0.8153 0.0838 -1.3557 -0.1709 0.6803 -1.8812 -4.2466 1.2668 -1.4728 1.5517 0.5748
2.3604 -1.7326 -3.5984 3.8111 2.6702 0.3671 -1.6464 -3.1006 3.7861 -2.7399 -4.3398 1.8199 -0.2533 -4.4963 2.1450 -2.0805 1.2151 -1.9971 -2.3709 2.2370 0.2822 1.3019 -1.5452 -2.5400 2.8756 3.7829 0.7714 0.8206 4.2249 -0.1228 0.1444 3.4024 -1.1951 0.9580 1.1294 -1.3874 1.9552 -1.0999 -1.3192 2.2144 4.2545 -0.3926 -2.5324 -1.0887 0.9391 -0.0830 -1.9514 0.7794 1.1134 -0.1588 -0.5971 0.0049 2.0211 -0.6948 -1.2886 -2.2576 1.2860 -0.1262 -0.7064 0.0334 -1.3462 -0.1462 0.0809 -1.4803 -3.7205 2.1899 -1.6120 1.4064 -0.6359
3.2917 -2.3171 -1.5643 3.8758 2.5541 0.3470 -2.8753 -4.1178 2.3580 -0.5444 -4.7033 1.5070 -0.7825 -3.1642 3.4755 -2.5676 1.4835 -1.7026 -2.2570 2.3529 0.6370 2.7398 -1.0243 -2.1137 2.6647 3.3646 0.7369 0.7533 4.1834 -0.2096 -0.0330 3.4668 -1.2847 0.5140 1.1606 -1.8022 1.2873 -1.0902 -2.0986 2.1393 3.9707 -0.4345 -2.5119 -1.0070 1.0959 -0.1938 -1.9591 0.4052 0.8114 -0.1500 -1.0922 -0.1896 2.0621 -0.8694 -1.2944 -2.2529 1.1178 -0.3215 -0.6773 -0.2666 -1.4724 -0.0658 0.0620 -1.2439 -3.6189 2.1751 -1.7899 1.5493 -0.4792
2.1981 -2.0835 -3.7115 2.8973 2.5730 1.5057 -2.7600 -3.1795 3.3807 -1.7117 -4.5824 1.5254 -0.2448 -3.5641 3.2882 -1.8879 1.0739 -2.2460 -2.2160 2.2919 -0.0694 1.2235 -1.7484 -2.6106 2.3285 3.9432 1.2277 0.7702 4.2354 -0.4170 0.3658 3.2992 -1.5328 1.1299 1.0043 -1.5821 1.9776 -1.2781 -1.4585 2.1614 4.0841 -0.1748 -2.4075 -0.9231 0.9382 0.0123 -1.8688 0.8211 1.2312 -0.2565 -0.7406 0.1814 1.9511 -0.9610 -1.1820 -2.0681 1.4028 -0.0134 -0.7054 -0.0471 -1.2172 -0.1101 -0.0379 -1.3868 -3.4639 2.3944 -1.4498 1.3758 -0.8949
2.6089 -2.5976 -3.6664 1.5484 3.0538 2.3488 -0.9939 -2.4305 3.9129 -2.7074 -3.7633 2.5440 -0.2535 -4.2099 2.2294 -2.1315 1.7849 -1.7100 -1.3482 2.5997 0.5390 1.8973 -2.4692 -2.3437 2.3909 3.8450 1.3776 2.0218 3.5507 -0.8594 0.8197 3.1073 -1.6626 0.7308 0.7319 -2.1608 0.7251 -1.6320 -2.5332 1.5686 4.2455 0.2928 -2.2269 -0.5441 1.3086 -0.3471 -2.0506 0.3280 0.7299 -0.6261 -1.4813 0.4012 1.7799 -1.1728 -1.2871 -2.0095 1.2845 -0.3383 -0.8295 -0.4553 -1.2407 0.0551 0.0035 -1.3435 -3.2766 2.4578 -1.2245 1.6851 -0.5815
3.3217 -1.8727 -1.2453 3.8241 3.0708 -2.4378 -0.2935 -4.9059 1.6307 -2.4885 -4.2126 2.7154 -2.4187 -4.6327 0.2456 -2.5922 1.9044 -0.5426 -1.8157 2.2738 1.8187 2.6296 -0.7032 -1.9011 3.3806 3.4200 -1.0389 1.4608 4.0316 0.0388 0.0791 3.5872 -0.3820 0.4160 1.3241 -1.1917 1.1901 -0.8707 -1.7808 2.2330 4.2497 -1.1326 -2.5224 -1.0976 1.5430 -0.3931 -2.0913 0.4288 0.7391 -0.0617 -0.6574 -0.0658 2.1525 -0.0669 -1.4652 -2.4284 1.1643 -0.3758 -0.6675 0.1389 -1.4273 -0.0414 0.6963 -1.7937 -4.0978 1.4439 -1.6220 1.6692 0.5128
2.3180 -3.3073 -2.0734 1.4455 3.3593 2.3207 -2.1818 -3.0779 3.6136 -1.8215 -4.5560 1.5709 0.1521 -3.4762 2.6791 -2.3255 1.8883 -1.4536 -1.1758 2.6943 0.6368 2.1465 -1.9138 -2.6288 2.3969 3.5995 1.1747 1.9968 3.4468 -1.0681 0.7179 3.1141 -1.8031 0.3621 0.7785 -2.3968 1.7603 -1.0087 -1.5593 1.6690 4.1777 0.1052 -1.9929 -0.4738 1.5193 -0.5964 -2.0957 0.0432 0.3770 -0.6137 -1.7816 0.2599 1.7964 -1.3276 -1.3517 -2.0546 1.1535 -0.4789 -0.7840 -0.5680 -1.1954 0.1370 0.0978 -1.2278 -3.4012 2.2284 -1.2542 1.7710 -0.4827
2.9815 -2.6857 -1.7722 2.7324 2.2949 1.1387 -2.2347 -3.5022 3.4487 -2.1876 -4.4586 1.0790 -0.0402 -4.2074 2.3589 -2.5962 1.6929 -1.2930 -1.7877 2.5683 0.9241 2.6071 -1.2576 -2.1064 3.0595 3.4674 0.2447 1.5096 3.8978 -1.3853 0.0580 3.4803 -1.4565 0.3875 1.1058 -1.9287 1.1555 -1.1610 -2.1687 1.8553 4.1683 -0.0339 -2.2507 -0.7706 1.4951 -0.1961 -1.9300 0.4117 0.7462 -0.1706 -1.1853 -0.0759 2.1033 -0.9403 -1.1561 -2.1131 1.3300 -0.2922 -0.6206 -0.2068 -1.3262 0.0823 0.2892 -1.3492 -3.6967 1.9909 -1.5999 1.7128 -0.2340
1.6104 -3.7421 -2.3246 0.7826 2.8641 2.5485 -2.6894 -3.7258 2.2160 -0.1732 -4.1759 2.0679 -1.0244 -2.5029 3.7389 -1.9498 1.5984 -2.1207 -1.6065 2.6843 0.1255 2.1413 -2.3292 -2.3307 1.8655 3.2336 1.5648 1.9196 3.7835 -0.6527 0.8633 3.3061 -1.6268 1.0352 0.9311 -2.1490 1.0262 -1.4264 -2.5608 1.3061 4.1003 0.5886 -2.0779 -0.4671 1.1441 -0.0200 -1.8475 0.3545 1.0202 -0.4388 -1.4896 0.4653 1.9422 -1.2361 -1.0356 -1.8605 1.2319 -0.0716 -0.6713 -0.4941 -1.0780 0.1460 -0.1431 -1.0967 -3.1126 2.4231 -1.2125 1.7107 -0.8758
3.4724 -1.9248 -0.8290 3.8926 3.0400 -1.9832 -3.1682 -4.5236 1.0280 -0.6532 -4.9348 0.8376 -1.6019 -4.1164 3.0151 -2.5729 1.6910 -1.0189 -2.1550 2.2474 1.3962 2.9040 -0.7088 -1.5182 3.3034 3.5855 -0.7059 1.2046 4.1383 0.0091 -0.0623 3.5760 -0.5928 0.5207 1.3095 -1.2353 1.4624 -0.8587 -1.6300 2.1436 4.3329 -1.0378 -2.5817 -1.1766 1.2601 -0.2711 -2.0716 0.4698 0.8510 -0.0308 -0.6000 -0.1577 2.1497 -0.2266 -1.4217 -2.4572 1.0447 -0.3117 -0.6681 0.0966 -1.4610 -0.0903 0.4876 -1.5921 -4.0962 1.5630 -1.7443 1.5874 0.1699

>  <OB_ATOM_TYPES> (1a42A1)
C.3 C.3 N.3 O.2 O.2 O.2 O.2 C.3 C.3 C.3 C.3 C.3 N.3 O.3 S.2 C.ar C.3 N.3 C.ar C.ar C.ar S.O2 S.O2

>  <ENSEMBLE_RMSD> (1a42A1)
0.000 0.546 0.756 0.796 0.842 0.910 0.920 1.010 1.028 1.043 1.052 1.059 1.078 1.107 1.113 1.128 1.132 1.132 1.139 1.170 1.199 1.206 1.226 1.230 1.267 1.279 1.284 1.315 1.328 1.358 1.377 1.396 1.401 1.405 1.419 1.433 1.442 1.464 1.489 1.496 1.501 1.502 1.512 1.534 1.536 1.592 1.613 1.628 1.641 1.674

$$$$
