
 OpenBabel03071213D

 31 34  0  0  0  0  0  0  0  0999 V2000
   50.2860   52.8420   -3.1240 C   0  0  0  0  0
   62.8570   55.6150   -1.5650 O   0  0  0  0  0
   62.5680   56.4280   -3.5860 O   0  0  0  0  0
   50.8850   55.1150   -2.6590 O   0  0  0  0  0
   61.6140   58.8990    0.5950 O   0  0  0  0  0
   55.0390   57.5760    2.7530 O   0  0  0  0  0
   57.9560   56.7450   -0.6760 O   0  0  0  0  0
   56.4420   60.6330    1.0870 C   0  0  0  0  0
   58.3790   60.7280    2.7710 C   0  0  0  0  0
   57.4930   60.2660   -0.0840 C   0  0  0  0  0
   59.3000   60.4320    1.7600 C   0  0  0  0  0
   62.8550   57.9820   -1.7930 C   0  0  0  0  0
   52.2350   53.6590   -1.7540 N   0  0  0  0  0
   59.6760   59.0830   -0.5740 N   0  0  0  0  0
   61.4560   58.3780   -1.6840 O   0  0  0  0  0
   52.9360   55.6750   -0.5450 C   0  0  0  0  0
   54.6030   53.9410   -1.0110 C   0  0  0  0  0
   53.9010   56.4450    0.0810 C   0  0  0  0  0
   55.5860   54.7260   -0.3700 C   0  0  0  0  0
   56.9910   60.0720    2.5010 C   0  0  0  0  0
   57.2500   58.4580    2.3960 C   0  0  0  0  0
   58.2570   58.1630    1.2260 C   0  0  0  0  0
   56.2310   56.9060    0.8570 N   0  0  0  0  0
   62.7550   56.5810   -2.3620 C   0  0  0  0  0
   51.1620   53.9170   -2.4930 C   0  0  0  0  0
   60.9740   58.8130   -0.4580 C   0  0  0  0  0
   56.0470   57.5970    2.0360 C   0  0  0  0  0
   57.4640   57.1880    0.3660 C   0  0  0  0  0
   53.2650   54.4200   -1.1020 C   0  0  0  0  0
   55.2450   56.0050    0.1910 C   0  0  0  0  0
   58.7680   59.5000    0.5310 C   0  0  0  0  0
  1 25  1  0  0  0
  2 24  1  0  0  0
  3 24  2  0  0  0
  4 25  2  0  0  0
  5 26  2  0  0  0
  6 27  2  0  0  0
  7 28  2  0  0  0
  8 10  1  0  0  0
  8 20  1  0  0  0
  9 11  1  0  0  0
  9 20  1  0  0  0
 10 31  1  0  0  0
 11 31  1  0  0  0
 12 15  1  0  0  0
 12 24  1  0  0  0
 13 25  1  0  0  0
 13 29  1  0  0  0
 14 26  1  0  0  0
 14 31  1  0  0  0
 15 26  1  0  0  0
 16 18  2  0  0  0
 16 29  1  0  0  0
 17 19  1  0  0  0
 17 29  2  0  0  0
 18 30  1  0  0  0
 19 30  2  0  0  0
 20 21  1  0  0  0
 21 22  1  0  0  0
 21 27  1  0  0  0
 22 28  1  0  0  0
 22 31  1  0  0  0
 23 27  1  0  0  0
 23 28  1  0  0  0
 23 30  1  0  0  0
M  END
>  <MOLID> (1a4kB1)
1a4kB1

>  <SMILES_CANONICAL> (1a4kB1)
OC(=O)COC(=O)N[C@]12CC[C@H](CC1)[C@@H]1[C@H]2C(=O)N(C1=O)c1ccc(cc1)NC(=O)C	

>  <FINGERPRINT> (1a4kB1)
0000000000000011010000000000001000000001010000000001010000000001000000000001000000000100000000000000000000000000000001100000000000100000000000000000000000000000000000000000000010100000000100000000000000000000000000000000000000100000000000000000000000000000000000000010000000000010000000000000000000000000000010011110000000000000001010000000000000000100010000000000001111010000000000000000110000000000100000000000101000000000000100000000000000000000000000000000001000000000010000000000000000011010000000000000100000000000000001100000000000000000100000000000100000000000000000010000101000000000001010000001000000000000000000000000001000000001011000000001001000000000000000000001100000001100000011101101000000100100000000000010000000000000000010000001000000000000000110000000000000000000010000000000000000000000000000000000000000000010000000000000000000000000000000000001000000100000000000001100000000000000000000001000001000000010000000000000011000000000000100011000000000000010000000000000000000000010100000000010001000000000

>  <MACCS166> (1a4kB1)
000000000000000000000010000000000000000000001000000000000000010001000001001100010010100011010001101000011101011100001101111001101011101111111110111111101111111110111000

>  <OB_MW> (1a4kB1)
429.154

>  <OB_logP> (1a4kB1)
2.0329

>  <OB_PSA> (1a4kB1)
142.11

>  <OB_MR> (1a4kB1)
111.117

>  <OB_ATOMIC_CHARGES> (1a4kB1)
0.0967972537 -0.2414813567 -0.2414813567 -0.2729716045 -0.224550624 -0.2741275064 -0.2740683011 0.0022109736 0.0022109736 0.0206413285 0.0206413285 0.3228842772 -0.1791984794 -0.1716334575 -0.4210088168 0.0178874004 0.0178874004 0.0166504581 0.0166504581 0.0092755764 0.0876555224 0.1044317553 -0.2081003206 0.4086032551 0.2460607618 0.4215679231 0.2351588847 0.2367414669 0.073447823 0.0607239712 0.0904930319

>  <MCT_HBD> (1a4kB1)
3

>  <MCT_HBA> (1a4kB1)
10

>  <ENSEMBLE_TOTAL> (1a4kB1)
48

>  <ENSEMBLE_COORDS> (1a4kB1)
-6.5809 -4.4250 -2.7280 5.7471 -1.8258 -0.9705 5.3158 -1.1138 -3.0958 -6.4790 -3.4370 -0.5640 4.7535 2.0406 0.7225 -2.1557 0.3906 2.6724 0.9301 -0.2140 -0.7548 -0.5536 3.4153 1.3965 1.1932 3.2861 3.1263 0.5002 3.2208 0.3126 2.2472 3.0924 2.0394 5.4999 0.4782 -1.2934 -4.7265 -3.1076 -2.0898 2.6527 2.2498 -0.2275 4.1193 0.7852 -1.0894 -3.9792 -2.0570 0.0084 -2.6583 -1.9916 -2.0033 -3.0427 -1.3596 0.6773 -1.6704 -1.2041 -1.2841 -0.1447 2.6965 2.6808 0.0836 1.2078 2.4147 1.1118 1.0024 1.3074 -0.9069 -0.0945 0.7235 5.4977 -0.8829 -1.9096 -5.9386 -3.6070 -1.6506 3.9150 1.7130 -0.1104 -1.1575 0.4780 1.9673 0.3833 0.1773 0.2696 -3.7866 -2.3955 -1.3914 -1.8276 -0.8795 0.0177 1.6578 2.3609 0.8260
-6.7702 -4.3308 -2.8302 5.9282 -1.4089 -1.6488 6.1778 -0.2547 -3.5999 -6.7931 -3.2017 -0.7372 4.8308 2.4678 0.4833 -2.6409 1.0494 2.3121 0.9194 -0.9677 0.1058 -0.1493 3.3180 0.8022 1.1081 3.4294 2.9137 1.0477 2.6502 0.1217 2.3009 2.7464 2.2437 5.7750 0.9282 -1.5291 -4.8337 -3.2138 -2.0355 2.9601 1.1047 0.5228 4.3822 0.9882 -1.2122 -4.3446 -1.7115 -0.1468 -2.6127 -2.5239 -1.6012 -3.4502 -1.0070 0.5727 -1.6561 -1.7267 -0.8395 -0.2050 2.9555 2.2856 -0.2796 1.4385 2.4636 0.8887 0.7645 1.7688 -1.1355 -0.1619 0.9460 5.9699 -0.2798 -2.3958 -6.1510 -3.5218 -1.7313 4.1138 1.6137 -0.0254 -1.5198 0.7860 1.8948 0.2511 -0.2218 0.8114 -3.9177 -2.5326 -1.2689 -2.0271 -0.9793 0.2252 1.8328 1.8035 1.1280
-6.4983 -4.3116 -2.8214 5.3437 -1.1075 -2.9622 4.8130 -2.0293 -0.9428 -6.5184 -3.0707 -0.7917 4.7291 2.2711 0.5816 -1.9894 0.2469 2.7361 0.9672 -0.1327 -0.8375 -0.6190 3.3297 1.4319 1.1703 3.2925 3.1225 0.4204 3.2268 0.3248 2.2146 3.1565 2.0119 5.3604 0.3123 -1.0996 -4.5542 -3.2029 -2.0644 2.5947 2.3750 -0.2947 4.0853 0.9507 -1.1833 -4.0107 -1.7521 -0.1493 -2.3543 -2.4548 -1.7561 -3.1039 -0.9951 0.4948 -1.3729 -1.6741 -1.0318 -0.1302 2.6222 2.6948 0.1975 1.1554 2.4111 1.1864 1.0256 1.2582 -0.7965 -0.1414 0.7320 5.1352 -1.0693 -1.6262 -5.8780 -3.4597 -1.7613 3.8763 1.8808 -0.2092 -1.0170 0.3749 2.0032 0.4560 0.2006 0.2247 -3.6303 -2.5041 -1.3348 -1.7123 -0.9385 0.0473 1.6352 2.4227 0.7916
-6.6270 -4.2178 -2.7035 6.0857 -0.0117 -3.1703 4.8925 -1.8967 -2.6849 -4.3231 -4.0081 -3.2753 4.7122 1.8750 0.5905 -2.1042 0.5605 3.0391 0.7139 -0.3030 -0.5604 -0.5014 3.4389 1.4968 1.3260 3.3498 3.1412 0.4897 3.1652 0.3737 2.3192 3.0546 2.0159 5.1811 -0.1741 -1.0197 -5.1489 -2.9719 -1.3458 2.5658 2.0849 -0.2349 3.9146 0.4857 -1.0558 -4.3539 -1.4542 0.3185 -2.8095 -2.3921 -1.2783 -3.3699 -0.7481 0.9020 -1.7466 -1.6498 -0.6217 -0.0447 2.7749 2.7942 0.1387 1.2685 2.6017 1.0843 0.9757 1.4414 -1.0032 -0.0569 1.0369 5.3448 -0.8082 -2.3644 -5.2275 -3.7253 -2.4985 3.8071 1.4983 -0.1473 -1.1483 0.5649 2.2737 0.2588 0.1476 0.4839 -4.0769 -2.2874 -0.8391 -1.9924 -0.8289 0.4234 1.6432 2.2897 0.8670
-6.8806 -2.2612 -1.4844 6.0610 -1.2848 -1.8442 5.3888 0.2830 -3.3558 -6.6976 -4.1926 -2.8412 3.9171 2.5802 -1.0648 -2.5538 0.9126 2.4444 0.9815 -1.0410 0.1334 -0.1856 3.2297 0.7935 1.1552 3.4139 2.8450 0.9910 2.5659 0.0792 2.3404 2.7471 2.1370 6.0851 0.9669 -1.1517 -4.7893 -3.5012 -1.7440 2.9585 1.0917 0.4309 5.0890 0.8306 -0.1418 -4.3135 -1.5853 -0.2371 -2.5751 -2.9592 -1.1497 -3.4073 -0.8457 0.4330 -1.5981 -2.1759 -0.3980 -0.1767 2.8924 2.2842 -0.2014 1.3749 2.4943 0.9593 0.7144 1.7729 -1.0653 -0.2904 1.0509 5.7975 -0.0189 -2.2444 -6.1174 -3.3878 -2.1079 3.9837 1.6135 -0.3135 -1.4414 0.6711 1.9913 0.3164 -0.3098 0.8573 -3.8917 -2.6655 -1.1166 -1.9712 -1.1339 0.3791 1.8419 1.7654 1.0688
-6.1336 -4.3623 -3.1484 3.7607 -0.6155 -3.4274 5.7180 -1.4646 -2.6140 -6.4563 -3.0656 -1.1795 4.4907 2.6410 -0.0919 -2.6359 1.2702 2.0866 1.1257 -0.9737 0.5184 0.0127 3.3350 0.7564 0.9931 3.6257 3.0023 1.2755 2.6199 0.2835 2.2551 2.8961 2.5379 4.9506 0.7076 -1.9049 -4.3045 -3.3294 -2.0751 3.1456 1.1706 1.0735 4.3987 0.4084 -0.6224 -4.0501 -1.7318 -0.2198 -2.1734 -2.5464 -1.4989 -3.2375 -0.9768 0.5402 -1.3112 -1.6856 -0.7136 -0.2226 3.0928 2.2486 -0.3124 1.5963 2.5487 0.9252 0.8679 2.0487 -0.9917 -0.0744 1.0462 4.8785 -0.5782 -2.6631 -5.6721 -3.5037 -2.0127 4.0239 1.5192 0.0763 -1.4780 0.9370 1.8665 0.3959 -0.1721 1.0891 -3.5002 -2.5596 -1.2798 -1.7988 -0.9154 0.2821 1.9283 1.8674 1.4465
-7.0151 -2.4591 -0.9993 7.0266 1.1337 -2.8009 5.9332 -0.8645 -2.9108 -6.9043 -4.2714 -2.5169 4.2834 0.4454 1.2613 -2.4524 0.7514 2.5411 0.8762 -0.7803 -0.3289 -0.4273 3.3215 0.8451 1.1242 3.4290 2.7503 0.7028 2.8042 -0.0375 2.2564 2.9087 1.8634 5.9947 0.3620 -0.8355 -4.9045 -3.4023 -1.7832 2.7572 1.5247 -0.1130 4.8400 1.2040 -0.8347 -4.3835 -1.6150 -0.1327 -2.6827 -2.8100 -1.3316 -3.4488 -0.8712 0.4918 -1.6757 -2.0268 -0.6307 -0.2242 2.8686 2.2887 -0.1352 1.3428 2.3677 0.9694 0.8127 1.4648 -1.0800 -0.2270 0.8829 6.2922 0.1206 -2.2828 -6.2795 -3.4586 -1.8327 3.9865 1.0022 0.2110 -1.3894 0.6179 1.9468 0.2694 -0.1538 0.5319 -3.9984 -2.6215 -1.1087 -2.0150 -1.0660 0.2557 1.7041 1.9781 0.7775
-4.5128 -4.1757 -3.0701 7.0701 0.7765 -2.5880 5.4763 -0.5650 -3.5193 -6.8029 -4.1917 -2.4586 3.6397 -0.3027 0.7596 -2.3004 0.9380 2.9103 0.6518 -0.6014 -0.3412 -0.3076 3.4842 1.1217 1.4228 3.4260 2.8717 0.7073 2.9556 0.1134 2.4342 2.8851 1.8609 5.5318 -0.2320 -1.1345 -5.4139 -2.8145 -1.2626 2.6898 1.5872 -0.1946 4.7116 0.9064 -0.8665 -4.5454 -1.2437 0.2867 -3.0078 -2.4643 -1.1021 -3.5439 -0.5610 0.8672 -1.9224 -1.7383 -0.4452 0.0066 2.9604 2.5212 0.0158 1.4311 2.5332 0.9974 0.8899 1.5055 -1.1414 -0.0175 1.0781 5.9933 -0.0433 -2.5429 -5.6758 -3.7450 -2.2372 3.6764 0.6437 -0.0193 -1.3094 0.7875 2.2059 0.1665 0.0111 0.6022 -4.2863 -2.2264 -0.7539 -2.1513 -0.8008 0.5036 1.7297 2.0407 0.7951
-6.3227 -2.9449 -1.0709 4.9578 -0.8923 -3.2396 3.6154 -2.0542 -1.8054 -6.0588 -4.4421 -2.8852 4.5966 1.4590 1.0691 -2.0774 0.3746 2.6922 1.1904 -0.0940 -0.5832 -0.5924 3.4752 1.3758 1.0678 3.4958 3.2035 0.5296 3.3096 0.3585 2.1878 3.3201 2.1810 4.8929 -0.1798 -1.0080 -4.2045 -3.2521 -2.2197 2.7754 2.4226 -0.0002 4.0583 0.9680 -1.1083 -3.8375 -1.7674 -0.2647 -2.0629 -2.4615 -1.7289 -2.9845 -0.9984 0.4385 -1.1431 -1.6567 -0.9488 -0.2104 2.8265 2.7032 0.1074 1.3431 2.5118 1.2003 1.1563 1.4681 -0.7167 -0.0620 0.8143 4.3952 -1.1423 -2.0342 -5.5209 -3.6361 -2.1250 3.8630 1.5832 0.0929 -1.0558 0.5177 2.0320 0.5754 0.2732 0.4108 -3.3647 -2.5443 -1.3984 -1.5602 -0.9220 0.1031 1.6989 2.5251 0.9656
-4.7011 -4.1252 -3.0413 7.5754 -0.5117 -2.0516 5.7315 -0.0571 -3.3238 -6.9951 -4.0699 -2.4325 3.7689 2.3813 -1.2498 -2.4703 1.0720 2.7873 0.5457 -1.0458 -0.0443 -0.0860 3.2220 1.0130 1.4708 3.1282 2.9330 0.9507 2.5268 0.1343 2.5028 2.4120 2.0620 6.0089 0.9522 -1.1456 -5.6103 -2.5686 -1.4079 2.7675 0.8615 0.1812 4.7858 0.4173 -0.6472 -4.7176 -1.0491 0.1720 -3.2252 -2.5481 -0.9783 -3.6882 -0.4287 0.7703 -2.1169 -1.9044 -0.2826 0.0495 2.7885 2.4759 -0.0936 1.2744 2.6020 0.9016 0.5708 1.6978 -1.2738 -0.1410 1.1452 6.3801 0.0782 -2.2978 -5.8628 -3.6267 -2.2414 3.7861 1.3448 -0.5950 -1.4454 0.7583 2.1946 0.0609 -0.2913 0.7899 -4.4901 -2.1511 -0.7452 -2.3129 -0.8535 0.5448 1.8030 1.5837 0.9812
-6.9400 -4.3271 -2.6551 6.5296 2.0960 -1.9724 5.9316 0.5625 -3.5525 -7.0007 -2.2783 -1.4465 4.9507 1.7709 0.5456 -2.6620 1.2857 2.0758 0.7882 -1.3613 0.4368 0.0964 3.0362 0.3413 1.2478 3.4181 2.4854 1.2616 2.1667 -0.1330 2.4032 2.5276 2.0261 5.8930 -0.0230 -1.2087 -4.9792 -3.4524 -1.6600 2.9850 0.5632 0.6566 4.4946 0.0659 -0.9228 -4.4411 -1.4203 -0.3807 -2.7912 -3.1051 -0.8546 -3.5276 -0.6666 0.2565 -1.8149 -2.2961 -0.1386 -0.0695 2.9506 1.8597 -0.2857 1.5014 2.2979 0.8434 0.6199 1.7971 -1.2102 -0.2535 1.0208 6.1066 0.8773 -2.3861 -6.3307 -3.2231 -1.8475 4.2053 0.8928 0.1260 -1.5504 0.8659 1.7778 0.1660 -0.4516 0.9722 -4.0670 -2.6922 -0.9731 -2.1387 -1.0992 0.4001 1.9057 1.4491 1.0558
-6.4236 -2.5266 -1.6563 3.5038 -0.2481 -3.4583 5.3176 -1.4806 -2.8240 -5.9762 -4.2863 -3.1777 4.4880 2.6568 -0.1066 -2.6120 1.1459 2.2331 1.1625 -0.9850 0.5430 -0.0176 3.2849 0.7879 0.9889 3.6175 3.0102 1.2561 2.5948 0.3036 2.2579 2.9104 2.5369 4.9489 0.7201 -1.9009 -4.2045 -3.5094 -1.9569 3.1634 1.1870 1.0850 4.3971 0.4212 -0.6197 -3.9775 -1.4917 -0.5480 -2.1333 -2.9601 -1.0309 -3.1838 -0.6944 0.1899 -1.2905 -2.1166 -0.2063 -0.2310 3.0537 2.2846 -0.2843 1.5598 2.6022 0.9566 0.8526 2.0796 -0.9623 -0.1340 1.1228 4.6390 -0.4676 -2.7532 -5.5210 -3.5012 -2.3447 4.0252 1.5355 0.0742 -1.4518 0.8592 1.9648 0.4294 -0.1948 1.1261 -3.4344 -2.6666 -1.2060 -1.7678 -1.0002 0.3829 1.9370 1.8637 1.4628
-6.4989 -4.0639 -3.0969 4.6403 -0.9203 -0.0307 4.4742 -1.7585 -2.1470 -6.0429 -4.1311 -0.7557 4.7094 2.4258 0.0742 -1.6661 -0.0736 2.9174 0.7879 0.0384 -1.0327 -0.3959 3.1773 1.9340 1.6479 2.8671 3.2705 0.4370 3.2223 0.6604 2.4833 2.9159 1.9932 5.0540 0.5582 -1.7978 -4.7047 -2.8460 -2.1821 2.4546 2.4778 -0.4306 3.8639 1.3425 -1.7615 -2.6797 -1.6104 -2.0662 -3.8110 -2.2276 -0.0274 -1.7639 -0.9133 -1.3769 -2.7682 -1.5316 0.7159 0.2668 2.2835 2.9800 0.4841 0.8750 2.4295 1.2976 0.9143 1.1393 -0.7608 -0.1736 0.7390 4.6803 -0.8290 -1.3814 -5.7339 -3.7035 -1.8608 3.7583 2.0876 -0.6218 -0.8019 0.1708 2.0854 0.4214 0.2293 0.1203 -3.7523 -2.2946 -1.3709 -1.7747 -0.8711 0.0817 1.6937 2.3624 0.7997
-7.0035 -3.1447 -0.6786 6.4827 -0.8663 -1.0808 6.4054 0.0238 -3.1815 -6.7278 -4.3790 -2.6835 4.2139 0.4264 0.5590 -2.1956 0.4614 2.8518 0.6607 -0.5052 -0.6897 -0.4008 3.3022 1.3630 1.4246 3.0839 3.0073 0.5748 2.9706 0.2413 2.3996 2.7460 1.8814 5.9536 1.4060 -1.2518 -4.9595 -3.0928 -1.9984 2.5739 1.7708 -0.3659 4.5418 1.5552 -1.4085 -2.7511 -2.2938 -1.6933 -4.3911 -1.8307 0.0003 -1.8222 -1.5906 -1.0290 -3.3657 -1.0721 0.7233 0.0142 2.6043 2.6578 0.0883 1.0918 2.4526 1.0369 0.7511 1.3124 -1.0933 -0.1908 0.8677 6.2967 0.1384 -1.9699 -6.2180 -3.6232 -1.8553 3.8261 1.2108 -0.2987 -1.2312 0.4472 2.0975 0.1923 -0.0424 0.3435 -4.0909 -2.4530 -1.1573 -2.1075 -0.9347 0.2443 1.6723 2.0293 0.7390
-4.5871 -3.8366 -3.2122 6.4193 -1.0073 -2.6905 7.0578 0.9747 -1.7526 -6.8181 -4.1655 -2.4662 4.5176 2.1535 -0.3344 -2.5316 1.3191 2.5728 0.6030 -1.1829 0.2154 0.0240 3.1965 0.8064 1.4421 3.2473 2.8314 1.0958 2.3972 0.0703 2.5050 2.4256 2.1055 4.7926 0.6702 -2.5268 -5.5333 -2.7024 -1.2723 2.8831 0.7096 0.4260 4.0035 0.2057 -1.4359 -4.6511 -1.3527 0.4612 -3.1528 -2.3513 -1.1429 -3.6318 -0.7237 1.0653 -2.0626 -1.6315 -0.5120 0.0496 2.9006 2.3072 -0.1463 1.4102 2.5650 0.8870 0.5963 1.8026 -1.2628 -0.0916 1.1552 6.2064 0.2566 -2.2543 -5.7329 -3.6171 -2.2742 3.8370 1.1412 -0.4577 -1.4801 0.9084 2.0981 0.0858 -0.3296 0.9257 -4.4073 -2.2114 -0.6819 -2.2741 -0.8244 0.5485 1.8622 1.5150 1.0571
-6.0101 -4.4919 -3.2274 6.5097 -0.7042 -1.9249 5.0205 -1.2541 -3.5640 -6.6130 -2.7677 -1.6931 4.2822 2.6139 -0.4116 -2.6401 1.1810 2.4360 0.9445 -0.8973 0.3243 -0.0574 3.3752 0.9940 1.1287 3.4669 3.1528 1.1419 2.6787 0.3545 2.3267 2.7618 2.5199 4.6803 0.7281 -2.2331 -4.3649 -3.3631 -1.9807 3.0446 1.1433 0.8686 4.0082 0.4134 -1.0157 -2.2612 -2.8449 -0.9943 -4.1637 -1.4275 -0.5574 -1.4794 -2.0749 -0.2213 -3.2956 -0.5687 0.2357 -0.1704 3.0239 2.4781 -0.2736 1.5123 2.6698 0.9028 0.8101 2.0076 -1.1081 -0.0535 1.1303 5.3847 -0.5214 -2.6565 -5.7234 -3.4341 -2.2069 3.7970 1.5034 -0.2222 -1.5086 0.8943 2.0669 0.2767 -0.1427 1.0206 -3.6679 -2.5278 -1.1532 -1.9885 -0.8602 0.4104 1.8774 1.8277 1.3927
-6.1809 -3.8195 -0.8136 6.3500 -0.1691 -2.5801 4.5269 -1.1946 -3.4926 -6.0743 -4.2528 -3.1449 4.4149 0.9895 1.0177 -2.2227 0.5489 2.8396 0.9340 -0.2055 -0.4893 -0.4988 3.4831 1.5581 1.1954 3.3487 3.3325 0.5757 3.2400 0.5057 2.2746 3.0941 2.2806 4.5297 -0.5554 -1.1651 -4.3313 -3.1003 -2.2343 2.7123 2.2049 0.0439 3.8349 0.6932 -1.1837 -2.3575 -1.8385 -1.9215 -3.9059 -2.0637 -0.0875 -1.5530 -1.0657 -1.1781 -2.9952 -1.2713 0.7308 -0.1437 2.7797 2.8666 0.0547 1.2807 2.6417 1.1004 1.0271 1.5627 -0.9270 -0.0195 0.9492 5.0999 -0.6878 -2.5403 -5.5416 -3.7332 -2.1630 3.7027 1.2509 0.0540 -1.1949 0.5799 2.1744 0.3785 0.2089 0.5209 -3.5993 -2.3442 -1.3671 -1.8513 -0.7677 0.2183 1.6925 2.3591 1.0644
-4.8939 -3.5587 -3.3172 6.6719 0.1343 -3.3543 7.0598 -1.0175 -1.4210 -7.0122 -4.0847 -2.3809 3.6875 2.5950 -1.3008 -2.4108 0.9669 2.8363 0.5414 -1.0329 -0.1461 -0.1612 3.1986 1.0608 1.4786 3.0784 2.9162 0.8566 2.5691 0.1170 2.4914 2.4235 1.9755 5.9187 1.1065 -1.3700 -5.6505 -2.7338 -1.1485 2.7123 0.9566 0.0174 4.6727 0.5594 -0.9416 -4.6398 -1.5337 0.6240 -3.2869 -2.2534 -1.2373 -3.5872 -0.9290 1.1946 -2.1642 -1.5565 -0.6355 0.0510 2.7226 2.5003 -0.0478 1.2033 2.5827 0.9276 0.5580 1.6119 -1.2507 -0.1763 1.1180 6.6009 -0.0541 -2.0155 -5.9311 -3.5138 -2.2377 3.7051 1.4982 -0.7541 -1.4028 0.6839 2.2011 0.0725 -0.3009 0.7168 -4.4895 -2.2352 -0.6365 -2.2895 -0.8937 0.5346 1.7699 1.6201 0.8898
-7.2502 -4.2274 -2.1777 6.6356 0.1407 -3.3829 7.3825 1.6768 -1.8699 -5.1327 -3.7285 -3.1501 4.1572 -0.0016 0.9202 -2.3795 1.0616 2.7409 0.5267 -0.9395 -0.2847 -0.2619 3.3282 0.8165 1.4510 3.3389 2.5832 0.7312 2.6785 -0.1385 2.4453 2.6803 1.6254 5.8310 -0.0404 -1.1897 -5.6098 -3.0470 -0.9546 2.6269 1.1969 -0.3414 4.6236 0.7288 -1.2070 -4.5913 -1.7150 0.7597 -3.3504 -2.2547 -1.2328 -3.5379 -1.0506 1.2720 -2.2385 -1.4811 -0.6987 0.0216 2.9019 2.2553 -0.0296 1.3784 2.3852 0.9344 0.7158 1.4104 -1.2473 -0.1231 1.0381 6.7053 0.6991 -2.1508 -5.8718 -3.6400 -2.1766 3.8372 0.5922 -0.1021 -1.3839 0.7867 2.0826 0.0670 -0.2091 0.5847 -4.5062 -2.3419 -0.5508 -2.2977 -0.8866 0.5134 1.7122 1.7816 0.6204
-4.0110 -4.3834 -2.8320 4.6649 0.6860 -3.9912 5.5028 -1.2323 -3.0809 -6.3816 -4.2833 -2.7535 4.8572 2.0245 0.5514 -2.6014 1.4418 2.4313 0.7162 -1.1002 0.3865 0.1264 3.2106 0.7538 1.3096 3.4314 2.9015 1.2836 2.3796 0.2040 2.4414 2.5447 2.3822 5.3466 0.7836 -1.7601 -5.2415 -2.6887 -1.5777 2.9914 0.7051 0.8470 4.3956 0.2558 -0.8361 -4.5145 -0.8864 -0.2092 -2.9707 -2.6499 -0.7836 -3.5439 -0.2121 0.4253 -1.9396 -1.9401 -0.0580 -0.0144 3.0198 2.2648 -0.2245 1.5474 2.6155 0.8654 0.6823 2.0015 -1.2209 -0.0176 1.1869 5.1922 -0.0539 -2.9875 -5.3138 -3.8026 -2.3744 4.1283 1.1056 0.1952 -1.5128 1.0103 2.0742 0.1430 -0.2556 1.0637 -4.2094 -2.1373 -0.8778 -2.1893 -0.7443 0.5118 1.9248 1.5592 1.3256
-7.4384 -3.7887 -2.3188 7.2467 0.6441 -0.2018 7.3117 -0.4024 -2.2296 -5.2787 -3.4312 -3.2686 3.3593 2.6560 -1.6156 -2.2232 0.6994 2.9276 0.4626 -1.0659 -0.4354 -0.1022 3.0548 1.1724 1.6697 2.7925 2.8707 0.8317 2.4952 0.1030 2.6021 2.2107 1.8058 5.7323 1.3762 -1.8208 -5.7226 -2.8139 -1.0503 2.6894 0.8949 -0.2667 4.5189 0.6848 -1.5384 -4.6242 -1.6761 0.7309 -3.4326 -2.1499 -1.3182 -3.5291 -1.1184 1.2725 -2.2800 -1.4822 -0.7527 0.2155 2.4595 2.5450 0.1197 0.9373 2.5107 1.0101 0.3675 1.4161 -1.2087 -0.3228 1.0527 6.8325 0.4277 -1.4727 -6.0168 -3.3232 -2.2973 3.5242 1.5344 -1.1483 -1.2667 0.4530 2.2038 0.0761 -0.4156 0.5283 -4.5790 -2.2082 -0.6192 -2.3017 -0.9739 0.4968 1.8013 1.4846 0.7181
-6.8421 -2.8356 -1.3724 6.7054 -0.6551 -1.8424 5.4948 -0.6058 -3.7757 -6.2661 -4.4616 -3.0022 4.5959 2.5199 0.0813 -2.6557 1.1295 2.4603 0.8401 -0.9876 0.2427 -0.0793 3.2966 0.9703 1.1749 3.3355 3.1032 1.0981 2.5983 0.2884 2.3414 2.6190 2.4285 5.1149 1.0564 -2.0771 -4.5481 -3.2883 -2.0622 2.9652 1.0069 0.7171 4.2140 0.5768 -1.0818 -2.4077 -2.6375 -1.3060 -4.3460 -1.6035 -0.3251 -1.5922 -1.8751 -0.5646 -3.4476 -0.7806 0.4842 -0.1523 2.9303 2.4560 -0.2789 1.4194 2.6296 0.8657 0.7121 1.9250 -1.1863 -0.1072 1.0898 5.7564 -0.1563 -2.6702 -5.8701 -3.6146 -2.2002 3.9571 1.4886 -0.0993 -1.5408 0.8337 2.0500 0.1968 -0.2236 0.9522 -3.8467 -2.5212 -1.1748 -2.1035 -0.8894 0.3796 1.8426 1.7202 1.2957
-6.8938 -3.1740 -1.0696 5.8594 -1.2841 -2.1130 5.2340 0.4341 -3.4735 -6.3938 -4.4798 -2.9839 3.9412 2.6056 -0.9598 -2.5407 1.0016 2.5768 0.8417 -0.9544 0.0483 -0.0784 3.3055 1.0511 1.3200 3.2567 3.0746 1.0445 2.6431 0.2552 2.4493 2.5884 2.2827 6.0167 0.8994 -1.2417 -4.6922 -3.2020 -2.1111 2.9379 1.0476 0.4344 5.0411 0.7293 -0.2162 -2.5341 -2.3450 -1.6067 -4.3454 -1.8221 -0.1216 -1.6787 -1.6053 -0.8807 -3.3965 -1.0466 0.6891 -0.0520 2.8551 2.5112 -0.1613 1.3313 2.6061 0.9482 0.6705 1.8063 -1.1452 -0.1661 1.0618 5.6517 0.0220 -2.4015 -5.9752 -3.7001 -2.1249 3.9735 1.5782 -0.2916 -1.4522 0.7388 2.0798 0.2307 -0.2442 0.8383 -3.9307 -2.4828 -1.2212 -2.0928 -0.9243 0.3457 1.8729 1.7234 1.1555
-6.3405 -2.4108 -1.9426 3.7319 -1.0722 -2.9617 3.9543 1.1808 -3.2450 -5.9633 -4.4575 -3.0717 4.7432 2.2118 -0.0289 -2.6067 1.3731 1.9393 1.1428 -1.1305 0.8061 0.2088 3.2183 0.4575 1.1021 3.7296 2.7045 1.4580 2.3999 0.1351 2.3464 2.9038 2.3909 5.2179 0.0538 -1.5341 -4.2433 -3.6440 -1.7885 3.2238 0.9873 1.2087 4.4699 -0.0492 -0.3265 -3.9719 -1.4902 -0.5908 -2.1914 -3.0871 -0.8172 -3.1743 -0.6683 0.1181 -1.3459 -2.2122 -0.0241 -0.1055 3.1676 1.9539 -0.2844 1.7239 2.4235 0.9424 0.8949 2.0799 -0.9685 -0.1131 1.1169 4.2344 0.1469 -2.6580 -5.4997 -3.5820 -2.3394 4.1785 1.1580 0.2396 -1.4483 1.0058 1.7904 0.4155 -0.2420 1.2324 -3.4590 -2.7441 -1.1146 -1.7874 -1.0213 0.4328 2.0204 1.7690 1.4137
-5.0320 -3.6556 -3.1405 7.2567 1.9708 -1.9753 6.6332 0.1964 -3.2683 -7.1263 -4.1628 -2.1420 4.1240 -0.1245 0.9566 -2.3599 1.1202 2.6798 0.5012 -1.0356 -0.2889 -0.1990 3.2477 0.7802 1.5019 3.2309 2.5703 0.7941 2.5877 -0.1638 2.4903 2.5455 1.6264 5.9750 0.3160 -0.9496 -5.7160 -2.8260 -0.9468 2.6655 1.0961 -0.3626 4.5805 0.3485 -1.2370 -4.6610 -1.4840 0.6992 -3.3743 -2.3015 -1.1712 -3.5850 -0.8591 1.1995 -2.2335 -1.5676 -0.6584 0.0718 2.8283 2.2242 0.0005 1.3092 2.3667 0.9503 0.6228 1.3883 -1.2501 -0.1250 1.0001 6.6345 0.7897 -2.2006 -6.0421 -3.5880 -2.0370 3.8290 0.4180 -0.1020 -1.3676 0.7842 2.0458 0.0611 -0.2717 0.5608 -4.5578 -2.2342 -0.5381 -2.3155 -0.8513 0.4826 1.7506 1.6746 0.6017
-4.3956 -3.7348 -3.3458 6.9557 -0.8449 -1.5644 5.7054 -0.8583 -3.4703 -6.6536 -4.1826 -2.7976 3.7919 2.8679 -1.0830 -2.2954 0.8061 3.1623 0.4653 -0.7753 -0.2322 -0.1451 3.2977 1.4620 1.6318 2.9989 3.1421 0.7880 2.7554 0.3818 2.5661 2.4406 2.0644 5.5767 1.0200 -1.9589 -5.4908 -2.8134 -1.3626 2.6151 1.1590 -0.0526 4.6039 0.7211 -0.9530 -3.0802 -2.2427 -1.2217 -4.6806 -1.4708 0.3878 -2.0951 -1.5986 -0.5690 -3.6077 -0.7715 1.0903 0.1689 2.6703 2.8195 0.0478 1.1477 2.7469 0.9586 0.6022 1.6606 -1.2573 -0.1367 1.2522 6.0594 -0.3180 -2.4330 -5.6075 -3.6151 -2.4768 3.6873 1.7043 -0.7144 -1.3355 0.6200 2.4235 0.0410 -0.1752 0.7487 -4.4445 -2.1868 -0.7304 -2.3315 -0.8173 0.6501 1.7575 1.7309 0.9736
-4.9972 -3.7841 -3.0636 7.1782 -0.0932 -2.9062 6.7229 2.0629 -2.3123 -7.1362 -4.1794 -2.1123 4.1283 -0.0948 0.9932 -2.3800 1.1936 2.6334 0.5060 -1.0378 -0.2537 -0.1991 3.2729 0.6870 1.4857 3.3089 2.4891 0.8015 2.5834 -0.2283 2.4822 2.5950 1.5745 5.9775 0.2364 -0.9294 -5.6940 -2.8980 -0.8939 2.6746 1.0847 -0.3688 4.5837 0.2859 -1.2194 -4.6698 -1.4613 0.6930 -3.3618 -2.3364 -1.1344 -3.5982 -0.8246 1.1900 -2.2271 -1.5852 -0.6312 0.0576 2.8955 2.1447 -0.0170 1.3808 2.3302 0.9415 0.6650 1.3818 -1.2570 -0.0974 0.9979 6.6461 0.8614 -2.1072 -6.0337 -3.6429 -1.9922 3.8338 0.4073 -0.0858 -1.3828 0.8424 2.0155 0.0585 -0.2532 0.5727 -4.5564 -2.2417 -0.5255 -2.3189 -0.8383 0.4897 1.7513 1.6921 0.5715
-7.0366 -2.9672 -0.7999 5.9113 -1.0283 -2.5305 6.5069 -0.4436 -0.4047 -6.8075 -4.0963 -2.8739 4.6759 2.5602 0.1326 -2.1651 0.3414 2.8621 0.6760 -0.5802 -0.7002 -0.3354 3.1923 1.4044 1.4749 2.9273 3.0652 0.6547 2.8798 0.2879 2.4590 2.5797 1.9491 5.6945 1.2277 -1.9387 -4.8984 -3.2659 -1.9257 2.6174 1.5764 -0.3238 4.2856 1.3650 -1.7798 -2.6710 -2.5695 -1.5419 -4.4207 -1.6525 -0.1689 -1.7338 -1.9107 -0.8434 -3.3986 -0.8856 0.5443 0.0597 2.4757 2.6957 0.1218 0.9659 2.4741 1.0669 0.6360 1.3286 -1.0675 -0.2714 0.8661 6.0696 -0.1552 -1.5085 -6.2531 -3.4688 -1.9704 3.9246 1.9003 -0.5756 -1.1996 0.3379 2.1088 0.2159 -0.1262 0.3408 -4.0752 -2.4557 -1.1931 -2.0856 -0.9997 0.2407 1.7332 1.9112 0.7787
-5.8757 -3.8245 -0.6093 3.3888 -1.5794 -2.4739 3.8046 -1.6623 -0.2310 -6.2051 -4.1935 -2.9265 4.6734 1.5348 0.6435 -1.8407 0.1970 2.6786 1.1290 0.0975 -0.8933 -0.4667 3.4022 1.6014 1.3405 3.2411 3.2726 0.5653 3.3654 0.4796 2.3704 3.1943 2.1477 4.7884 0.0754 -1.5846 -4.2952 -3.0852 -2.3104 2.7691 2.5731 -0.1642 3.9457 1.2213 -1.5105 -3.5948 -2.1485 -0.1201 -2.3529 -1.8081 -2.1515 -2.6788 -1.4560 0.5841 -1.3993 -1.0199 -1.3992 0.0255 2.6123 2.8139 0.3354 1.1667 2.4258 1.3321 1.1134 1.2745 -0.6357 -0.0456 0.6639 3.9475 -1.1355 -1.3239 -5.4923 -3.7039 -2.0494 3.8645 1.7467 -0.2541 -0.8739 0.4040 1.9562 0.6130 0.3478 0.1886 -3.4347 -2.3376 -1.5531 -1.5292 -0.8285 -0.0703 1.7819 2.5356 0.8950
-4.0119 -3.7743 -3.3197 5.0034 -0.1507 -3.7220 4.6336 -1.6490 -2.0399 -6.2158 -4.4098 -2.7435 4.2407 0.5967 0.7913 -2.1352 0.7671 3.0533 0.6757 -0.4538 -0.4514 -0.3615 3.4291 1.4842 1.5119 3.2861 3.0765 0.5753 3.0493 0.3444 2.4481 2.9137 1.9306 5.5631 0.5176 -1.5434 -5.1630 -2.9368 -1.3362 2.5785 1.8255 -0.2611 4.5291 1.4710 -1.3058 -2.7808 -2.3087 -1.2255 -4.4031 -1.5071 0.3561 -1.8118 -1.5966 -0.6290 -3.3518 -0.7314 0.9902 0.0974 2.7866 2.7917 0.1742 1.2687 2.6422 1.0959 0.8826 1.4931 -1.0429 -0.0364 1.1161 5.0055 -0.5523 -2.4293 -5.2193 -3.7539 -2.4386 3.8185 1.2369 -0.1654 -1.1620 0.6561 2.3176 0.2353 0.0555 0.5721 -4.1407 -2.2640 -0.7254 -2.0832 -0.7567 0.5315 1.6968 2.1388 0.8453
-5.9355 -3.9362 -0.9952 4.6390 -0.7901 -3.4899 3.2085 -1.9057 -2.1063 -5.7077 -4.4406 -3.3004 4.5921 1.3203 0.9673 -2.0446 0.3977 2.8804 1.0736 -0.0087 -0.5487 -0.4869 3.5126 1.6783 1.2696 3.3654 3.4045 0.5744 3.3627 0.5935 2.3259 3.2106 2.3133 4.6761 -0.2170 -1.2181 -4.1497 -3.0331 -2.3711 2.7560 2.4106 0.0614 3.9336 0.9973 -1.2075 -2.1721 -1.7969 -1.9825 -3.7052 -2.1157 -0.1588 -1.3742 -1.0344 -1.2202 -2.7994 -1.3296 0.6820 -0.0653 2.7766 2.9470 0.1722 1.2951 2.6543 1.2110 1.1272 1.5539 -0.7771 0.0131 0.9230 4.0721 -1.0622 -2.2913 -5.2522 -3.8479 -2.3201 3.8143 1.5301 0.0420 -1.0497 0.5431 2.1817 0.5105 0.3251 0.4867 -3.3857 -2.3813 -1.4401 -1.6627 -0.7862 0.1893 1.7391 2.4982 1.0916
-4.1040 -4.1873 -3.1506 4.8654 1.8077 -2.9302 4.0961 -0.2429 -3.5792 -6.4200 -4.3589 -2.6521 5.0162 1.6392 0.4869 -2.5589 1.6964 2.1088 0.7140 -1.2918 0.6996 0.3728 3.1471 0.4935 1.4663 3.4705 2.6867 1.4855 2.1867 0.0755 2.5655 2.4918 2.2809 5.4268 -0.0051 -1.5761 -5.2281 -2.7916 -1.4959 3.0684 0.4954 0.9803 4.4208 -0.2889 -0.6081 -4.5201 -1.1861 0.0975 -2.8688 -2.5166 -1.0483 -3.5659 -0.5139 0.7596 -1.8411 -1.7509 -0.3629 0.1467 3.1047 2.0068 -0.1954 1.6877 2.4595 0.8805 0.7127 2.0119 -1.1951 0.0146 1.1499 4.7088 0.4684 -2.7991 -5.3435 -3.8175 -2.3960 4.2246 0.7256 0.2822 -1.4786 1.1690 1.8754 0.1553 -0.3120 1.1771 -4.1673 -2.2344 -0.8424 -2.1531 -0.7662 0.5079 2.0262 1.4467 1.3009
-7.1260 -2.9555 -0.1989 7.1826 2.3591 -1.6304 7.2299 0.4139 -2.8277 -7.3333 -3.9752 -2.3282 4.1927 -0.0788 1.0849 -2.4586 0.8885 2.3678 0.6822 -1.0480 -0.4569 -0.2287 3.1783 0.6617 1.3269 3.1713 2.5794 0.8518 2.5704 -0.2205 2.4079 2.5465 1.6964 6.1857 0.4850 -0.6541 -5.2623 -3.1984 -1.7543 2.7906 1.1486 -0.2929 4.8083 0.5241 -1.0332 -4.5311 -1.7743 0.1408 -3.0764 -2.4079 -1.6657 -3.5259 -1.1148 0.7489 -2.0155 -1.6518 -1.0365 -0.0601 2.7286 2.1132 -0.0897 1.2039 2.2106 0.9523 0.5772 1.2921 -1.1922 -0.2559 0.7412 6.9094 1.0469 -1.8333 -6.5973 -3.4021 -1.5247 3.9617 0.5127 0.0364 -1.4117 0.6263 1.7896 0.1543 -0.3296 0.3834 -4.3061 -2.4514 -1.1259 -2.1995 -1.0114 0.1355 1.7784 1.6737 0.6014
-3.3959 -3.6865 -3.5465 2.5846 -1.7595 -2.1856 4.2224 -1.2675 -3.6956 -5.6437 -4.3188 -3.1445 4.5242 1.3127 0.6106 -1.8721 0.4975 3.2396 0.8712 -0.0520 -0.4724 -0.4314 3.5405 1.7791 1.4970 3.4418 3.3160 0.5077 3.3432 0.5947 2.4317 3.2403 2.1255 4.3104 -0.3513 -1.4688 -4.5909 -3.1301 -1.4899 2.6066 2.3702 -0.1384 3.6706 0.9197 -1.4803 -2.4951 -1.8281 -1.5419 -3.7820 -2.1312 0.4661 -1.6227 -1.0465 -0.8837 -2.8193 -1.3091 1.1809 0.1172 2.8465 3.0252 0.3208 1.3546 2.7627 1.2392 1.1448 1.5650 -0.8063 0.0343 1.1776 3.7209 -1.1441 -2.5888 -4.6413 -3.7435 -2.7187 3.6609 1.4930 -0.2421 -0.9492 0.6037 2.4413 0.4269 0.3194 0.6062 -3.6165 -2.4229 -0.8381 -1.7613 -0.7645 0.5465 1.7153 2.4936 0.9985
-3.6686 -4.6700 -2.7013 3.3184 -1.0589 -3.1682 3.7114 1.1816 -3.3383 -5.9984 -4.3285 -2.9880 4.7484 1.9325 -0.0659 -2.5234 1.6488 2.1723 0.9134 -1.1142 0.6858 0.3800 3.2758 0.6630 1.3868 3.6019 2.8877 1.5431 2.3723 0.2574 2.5422 2.6836 2.4941 4.9563 -0.1403 -1.7568 -4.8715 -2.7629 -1.7648 3.2054 0.7540 1.1792 4.2352 -0.2607 -0.5306 -4.2372 -0.8938 -0.4465 -2.6554 -2.6790 -0.8079 -3.3294 -0.1907 0.2496 -1.6918 -1.9292 -0.0209 0.1106 3.1761 2.1657 -0.1677 1.7299 2.5761 0.9597 0.8114 2.1292 -1.0678 0.0656 1.1867 3.9414 0.0942 -2.8310 -4.9471 -3.9224 -2.4915 4.1057 0.9117 0.1554 -1.4162 1.1725 1.9551 0.2984 -0.1989 1.2197 -3.8836 -2.1781 -1.0274 -1.9859 -0.7109 0.4826 2.0878 1.6265 1.4795
-6.4801 -2.8150 -1.7984 3.6136 -0.6006 -3.5087 5.6221 -1.4040 -2.7833 -5.7825 -4.6448 -3.1344 4.4260 2.6778 -0.1934 -2.6274 1.2149 2.3774 1.0533 -0.8846 0.4559 -0.0048 3.4082 0.9848 1.1210 3.5398 3.1790 1.2168 2.7061 0.3947 2.3390 2.8273 2.5957 4.8318 0.7486 -2.0331 -4.1432 -3.4381 -2.0778 3.1095 1.1868 0.9891 4.3183 0.4502 -0.7362 -2.0887 -2.8060 -1.0794 -4.0602 -1.5259 -0.5771 -1.3347 -2.0112 -0.3032 -3.2257 -0.6491 0.2469 -0.1565 3.0842 2.4708 -0.2701 1.5754 2.6829 0.9336 0.8658 2.0813 -1.0454 -0.0335 1.1446 4.7590 -0.5398 -2.7884 -5.4506 -3.7263 -2.3823 3.9556 1.5573 -0.0270 -1.4819 0.9332 2.0482 0.3465 -0.1195 1.1011 -3.5202 -2.5886 -1.2030 -1.8992 -0.8643 0.4039 1.9250 1.8758 1.4694
-6.6772 -3.1954 -0.9833 4.9032 0.9042 -3.8548 5.7581 -1.0100 -2.9507 -6.2637 -4.3000 -3.0454 4.8384 2.1323 0.7187 -2.6919 1.3711 2.1560 0.8168 -1.1610 0.4388 0.0817 3.2074 0.7311 1.1585 3.4041 2.9376 1.2725 2.4003 0.2180 2.3364 2.5658 2.4379 5.4693 0.9653 -1.5921 -4.4716 -3.3500 -2.0090 2.9941 0.7601 0.8995 4.4887 0.3874 -0.7303 -2.3492 -2.4668 -1.4846 -4.2762 -1.7500 -0.2142 -1.5597 -1.6293 -0.8006 -3.3985 -0.9178 0.5860 -0.1275 2.9842 2.2302 -0.3314 1.5024 2.5370 0.8219 0.6750 1.9863 -1.1918 -0.0809 1.0491 5.4065 0.1550 -2.8454 -5.8022 -3.6455 -2.1111 4.1506 1.2035 0.3088 -1.5712 0.9528 1.8953 0.1809 -0.3026 1.0388 -3.7698 -2.5056 -1.2050 -2.0822 -0.8357 0.3047 1.8866 1.5794 1.3527
-5.3968 -3.4914 -3.1401 6.9492 1.6105 -0.0660 6.7765 2.2216 -2.2612 -7.3483 -4.0940 -1.9294 4.1186 -0.3534 0.4490 -2.1346 0.9359 2.7359 0.4466 -1.0897 -0.5558 -0.0831 3.1512 0.7478 1.7562 3.0228 2.3938 0.8117 2.5128 -0.3034 2.6496 2.3663 1.3399 5.9140 0.0937 -1.5040 -5.8498 -2.7513 -0.8561 2.6303 0.9944 -0.7024 4.5205 0.3251 -1.7029 -4.6356 -1.5414 0.7829 -3.5030 -2.2853 -1.2086 -3.5194 -0.9468 1.2336 -2.3114 -1.5985 -0.7340 0.2901 2.6632 2.1482 0.1946 1.1398 2.2292 1.0516 0.4853 1.1525 -1.1832 -0.2306 0.9106 6.5723 1.4293 -1.3548 -6.2683 -3.5029 -1.9215 3.7936 0.2824 -0.5475 -1.2028 0.6351 2.0002 0.0872 -0.3629 0.3620 -4.6370 -2.2458 -0.4864 -2.2960 -0.9293 0.4400 1.8067 1.5541 0.3481
-4.4341 -4.0081 -2.9793 6.1787 0.0902 -3.5595 7.0978 -0.9687 -1.7584 -6.7803 -4.0843 -2.6629 3.6741 2.6572 -1.1500 -2.3610 0.9262 3.0059 0.4111 -0.8538 -0.2763 -0.0950 3.2184 1.3021 1.6127 2.9393 3.0587 0.8589 2.6057 0.2807 2.5626 2.2923 2.0488 5.8234 1.0563 -1.4587 -5.6097 -2.6706 -1.2986 2.6522 0.9327 0.0023 4.5453 0.5360 -1.0923 -3.1794 -2.4468 -0.9824 -4.7719 -1.0989 0.2203 -2.1575 -1.8448 -0.3552 -3.6630 -0.4159 0.8587 0.1569 2.6401 2.6950 0.0062 1.1193 2.6849 0.9212 0.5003 1.6396 -1.2947 -0.1343 1.1861 6.4424 -0.0566 -2.2384 -5.7066 -3.6013 -2.3022 3.6458 1.4991 -0.7495 -1.3781 0.6530 2.3287 0.0031 -0.2411 0.7028 -4.5463 -2.0594 -0.6957 -2.3857 -0.7582 0.5929 1.7707 1.5766 0.9518
-7.1369 -4.0262 -2.7257 7.2133 -0.4490 -2.0749 7.5266 0.8076 -0.1953 -7.1562 -3.1565 -0.5010 3.4800 2.7079 -1.5152 -2.3081 0.6292 2.7388 0.5698 -1.0249 -0.5183 -0.1082 3.0604 1.1541 1.6020 2.7500 2.9071 0.8626 2.5230 0.1070 2.5747 2.1992 1.8607 5.8118 1.4035 -1.7784 -5.2678 -2.9104 -1.8616 2.7232 0.9282 -0.2410 4.6166 0.7220 -1.4054 -3.0428 -2.1253 -1.7214 -4.5244 -1.8476 0.1683 -2.0704 -1.4532 -1.0911 -3.4385 -1.1868 0.8717 0.1570 2.4309 2.5221 0.0553 0.9106 2.4461 1.0021 0.3679 1.3852 -1.1888 -0.3223 0.8915 6.9310 0.5762 -1.2364 -6.5408 -3.3243 -1.5460 3.6095 1.5758 -1.0629 -1.3119 0.4231 2.0573 0.1226 -0.4013 0.4367 -4.3248 -2.3200 -1.0755 -2.2499 -0.9666 0.2711 1.8112 1.4992 0.7324
-6.9659 -3.4697 -0.3454 7.3124 1.8991 -0.9387 7.1142 0.8801 -2.9735 -7.0101 -4.1357 -2.6213 3.5922 -0.5254 0.2699 -2.2204 0.5819 2.8103 0.5593 -0.6857 -0.6935 -0.2451 3.2493 1.2148 1.5612 2.9760 2.8733 0.7098 2.8164 0.1092 2.5130 2.5324 1.7644 5.7997 0.1272 -1.1005 -5.2052 -2.9097 -1.9324 2.6568 1.4797 -0.4272 4.5385 0.7309 -1.3879 -3.0459 -1.9599 -1.7923 -4.4375 -1.9508 0.1672 -2.0913 -1.2667 -1.1539 -3.3605 -1.2565 0.8780 0.1218 2.5783 2.5375 0.0986 1.0573 2.3917 1.0211 0.6146 1.2648 -1.1592 -0.2057 0.8557 6.7961 0.9901 -1.7997 -6.3949 -3.5571 -1.7237 3.6141 0.4912 -0.4144 -1.2585 0.4857 2.0583 0.1293 -0.1572 0.3247 -4.2725 -2.3334 -1.1139 -2.2148 -0.9007 0.2528 1.7439 1.8240 0.6458
-7.5742 -3.7479 -2.1919 7.3775 0.2375 -0.3855 6.6783 2.4088 -0.4674 -5.3874 -3.5668 -3.1272 3.4927 2.1663 -1.8726 -2.1812 0.8720 2.7701 0.4447 -1.2842 -0.4074 0.0692 2.9760 0.8764 1.8247 2.7544 2.5944 0.9717 2.2840 -0.1402 2.7269 2.0405 1.5848 5.8124 0.8029 -2.0400 -5.8240 -2.7683 -0.9672 2.7346 0.5661 -0.3821 4.6316 0.2089 -1.5055 -4.6800 -1.5509 0.7330 -3.5016 -2.2332 -1.2622 -3.5620 -1.0079 1.2418 -2.3194 -1.5811 -0.7369 0.3541 2.4709 2.2912 0.1753 0.9567 2.3713 1.0440 0.2570 1.3371 -1.2025 -0.3486 0.9964 6.6480 1.2613 -0.8861 -6.1315 -3.3519 -2.1782 3.6188 1.0977 -1.2853 -1.2316 0.5197 2.0819 0.0811 -0.5475 0.5013 -4.6544 -2.1858 -0.5721 -2.3229 -0.9816 0.4722 1.8871 1.2752 0.5560
-5.3026 -3.6115 -3.0627 6.7239 2.1369 -2.3101 6.9897 1.6904 -0.0878 -7.3730 -4.0070 -1.9699 4.1207 -0.3480 0.4395 -2.1436 0.9622 2.7085 0.4456 -1.1012 -0.5584 -0.0891 3.1456 0.7456 1.7471 3.0171 2.3900 0.8103 2.5098 -0.3031 2.6423 2.3566 1.3404 5.9050 0.0837 -1.5204 -5.8378 -2.7607 -0.8341 2.6218 0.9835 -0.7129 4.5177 0.3419 -1.7138 -4.6346 -1.5216 0.7914 -3.5074 -2.2664 -1.2069 -3.5153 -0.9302 1.2346 -2.3177 -1.5752 -0.7467 0.2843 2.6563 2.1439 0.1900 1.1335 2.2246 1.0482 0.4760 1.1484 -1.1866 -0.2235 0.8975 6.5843 1.3784 -1.1977 -6.2549 -3.4938 -1.9126 3.7901 0.2797 -0.5597 -1.2080 0.6419 1.9863 0.0846 -0.3697 0.3551 -4.6371 -2.2203 -0.4803 -2.3013 -0.9095 0.4278 1.8034 1.5453 0.3434
-4.8373 -4.1597 -2.6902 6.9657 1.2783 -0.2974 6.7131 2.2196 -2.3610 -7.1743 -3.8696 -2.4134 4.0012 -0.4219 0.1886 -2.0517 0.7978 2.9879 0.3013 -0.8755 -0.6608 -0.0218 3.1848 1.1514 1.9067 2.8111 2.6390 0.7816 2.6353 -0.0192 2.7086 2.2480 1.4637 5.6736 0.0972 -1.8407 -5.8206 -2.6083 -1.0685 2.5028 1.0938 -0.7105 4.3085 0.5029 -1.8920 -3.4130 -2.1677 -1.2199 -4.7555 -1.3777 0.6163 -2.3236 -1.5753 -0.7085 -3.5802 -0.7099 1.1458 0.4147 2.5273 2.4586 0.2569 1.0094 2.3769 1.0332 0.4498 1.1913 -1.2301 -0.1750 0.9960 6.4899 1.3214 -1.5649 -6.0438 -3.5428 -2.0501 3.6459 0.3332 -0.7101 -1.1666 0.5618 2.1751 0.0042 -0.2710 0.3625 -4.6782 -2.1021 -0.5160 -2.3874 -0.7881 0.5196 1.7765 1.5727 0.4506
-7.2167 -4.2920 -2.5025 7.6858 0.6052 -0.4810 6.9080 2.4429 -1.5888 -7.3551 -2.2672 -1.2552 3.7603 1.9887 -1.6158 -2.4219 0.9775 2.5469 0.5546 -1.2682 -0.2237 0.0531 3.0515 0.7242 1.6145 2.9590 2.6281 1.0555 2.2886 -0.1386 2.6182 2.1836 1.7709 5.8337 0.3094 -1.8960 -5.2742 -3.2979 -1.5973 2.8249 0.5547 -0.0594 4.8563 0.1112 -0.8723 -2.9969 -3.0027 -0.9123 -4.6379 -1.3390 -0.3341 -2.0361 -2.3159 -0.2676 -3.5781 -0.5703 0.3121 0.1775 2.6473 2.1934 -0.0303 1.1409 2.3553 0.9482 0.3779 1.4792 -1.2516 -0.3072 0.9473 6.8483 1.2512 -1.3252 -6.6452 -3.1587 -1.7052 3.8111 0.9905 -0.9062 -1.4005 0.6322 1.9658 0.0816 -0.4908 0.5966 -4.3663 -2.5147 -0.9312 -2.3069 -1.0245 0.3684 1.8861 1.3370 0.7239
-4.9738 -3.7656 -3.0275 7.3336 -0.1341 -0.9160 6.4932 1.8527 -0.1674 -7.2371 -3.8963 -2.3292 3.5145 2.4552 -1.7621 -2.0316 0.6593 3.0543 0.2797 -0.9956 -0.6219 0.1389 3.0177 1.2344 2.0233 2.5275 2.7616 0.9385 2.4472 0.0677 2.8187 1.9307 1.5944 5.6470 0.8638 -2.1969 -5.8754 -2.4881 -1.1514 2.5879 0.7187 -0.5430 4.3815 0.3326 -1.8149 -3.4096 -2.3704 -1.0949 -4.8106 -1.1529 0.4386 -2.3075 -1.8492 -0.5315 -3.6226 -0.5515 1.0058 0.5169 2.3327 2.5499 0.2843 0.8254 2.4555 1.0485 0.2517 1.2733 -1.2289 -0.2840 1.0412 6.5060 0.9340 -0.9727 -6.1209 -3.4173 -2.1294 3.5046 1.2882 -1.3866 -1.1510 0.4277 2.2355 0.0016 -0.4024 0.4128 -4.7225 -2.0255 -0.5821 -2.3941 -0.8656 0.5492 1.8668 1.3334 0.5533
-7.3508 -2.5380 -0.5407 7.5418 0.2025 -0.4542 6.5375 2.1439 0.2041 -7.3284 -3.7813 -2.5662 3.6563 2.5460 -1.6445 -2.1463 0.4851 2.7321 0.5203 -1.0895 -0.7348 0.0162 2.9243 1.0378 1.7890 2.5695 2.7247 0.9456 2.3947 -0.0482 2.7135 2.0039 1.6408 5.9109 1.0962 -1.8763 -5.3092 -3.1246 -1.7370 2.7385 0.7603 -0.4931 4.6575 0.4830 -1.5956 -3.0218 -2.6473 -1.4510 -4.6336 -1.5117 -0.0641 -2.0115 -2.0565 -0.8004 -3.5325 -0.8166 0.5866 0.3248 2.2801 2.3894 0.1958 0.7613 2.3073 1.0768 0.2187 1.1923 -1.1514 -0.4245 0.7986 6.6636 1.2223 -0.5881 -6.6757 -3.1798 -1.7126 3.6874 1.3831 -1.2592 -1.1950 0.2895 1.9872 0.1313 -0.4964 0.2641 -4.3901 -2.3757 -1.0659 -2.2514 -1.0631 0.2375 1.8910 1.3405 0.5295
-7.2222 -2.9233 -0.2723 6.6568 2.5464 -2.0151 7.0674 1.8454 0.1169 -7.2883 -3.9868 -2.3943 4.1628 -0.3453 0.3873 -2.1734 0.6818 2.6296 0.5371 -0.9961 -0.7631 -0.1015 3.0792 0.9004 1.7035 2.8360 2.5617 0.8306 2.5473 -0.1789 2.6304 2.2783 1.4799 6.0065 0.3578 -1.4536 -5.2951 -3.0810 -1.7586 2.6730 1.0739 -0.6724 4.6138 0.5697 -1.6675 -3.0208 -2.4888 -1.5639 -4.5924 -1.6456 0.0581 -2.0224 -1.8134 -0.9816 -3.4974 -0.9241 0.6909 0.2493 2.4765 2.2596 0.1708 0.9518 2.2095 1.0646 0.4016 1.1043 -1.1526 -0.3136 0.7460 6.6251 1.6464 -1.0047 -6.6160 -3.3770 -1.5627 3.8527 0.3815 -0.5499 -1.2141 0.4511 1.9045 0.1342 -0.3773 0.2147 -4.3620 -2.4137 -1.0225 -2.2431 -0.9797 0.1930 1.8228 1.5413 0.4053

>  <OB_ATOM_TYPES> (1a4kB1)
C.3 O.co2 O.co2 O.2 O.2 O.2 O.2 C.3 C.3 C.3 C.3 C.3 N.am N.am O.3 C.ar C.ar C.ar C.ar C.3 C.3 C.3 N.am C.2 C.2 C.2 C.2 C.2 C.ar C.ar C.3

>  <ENSEMBLE_RMSD> (1a4kB1)
0.732 0.741 0.856 0.878 0.936 1.030 1.033 1.045 1.064 1.066 1.126 1.139 1.156 1.166 1.171 1.171 1.180 1.205 1.217 1.222 1.225 1.245 1.255 1.256 1.270 1.272 1.277 1.286 1.295 1.308 1.342 1.383 1.391 1.413 1.417 1.418 1.425 1.444 1.451 1.492 1.495 1.497 1.550 1.587 1.598 1.671 1.749 1.798

$$$$
