
 OpenBabel03071213D

 41 41  0  0  0  0  0  0  0  0999 V2000
  -13.0560   11.6970   10.7740 C   0  0  0  0  0
   -9.9680   15.7260    7.9080 C   0  0  0  0  0
   -9.1670   17.0370    5.9540 C   0  0  0  0  0
  -15.2790   11.0900    6.6380 C   0  0  0  0  0
  -14.8520   12.9270    5.0450 C   0  0  0  0  0
   -4.8320   18.1790   -4.8280 C   0  0  0  0  0
  -10.0880   16.1150   -4.1410 C   0  0  0  0  0
   -5.7410   17.9380   -7.0390 N   0  0  0  0  0
  -10.8640   19.0150    1.0930 O   0  0  0  0  0
  -10.7800   14.7100    3.1960 O   0  0  0  0  0
   -7.8780   18.7950   -5.5030 O   0  0  0  0  0
   -8.4350   15.7610   -1.7290 O   0  0  0  0  0
  -13.5770   15.8440    6.4930 O   0  0  0  0  0
  -11.5110   11.4360    8.2750 O   0  0  0  0  0
  -10.7740   16.6120    0.9150 C   0  0  0  0  0
  -11.8840   16.4140    1.9720 C   0  0  0  0  0
   -7.6860   18.9390    0.6230 C   0  0  0  0  0
   -7.7640   16.9320   -4.2320 N   0  0  0  0  0
  -11.6290   16.3670    4.4580 N   0  0  0  0  0
   -8.9820   17.9020   -1.2370 N   0  0  0  0  0
  -12.5390   13.8420    6.6570 N   0  0  0  0  0
  -13.0000   12.6640    9.7100 O   0  0  0  0  0
   -3.7290   18.6210   -1.1100 C   0  0  0  0  0
   -4.6690   19.4940   -1.6820 C   0  0  0  0  0
   -4.0860   17.8370   -0.0040 C   0  0  0  0  0
   -5.9580   19.6050   -1.1370 C   0  0  0  0  0
   -5.3680   17.9530    0.5460 C   0  0  0  0  0
  -10.4320   16.5190    6.6690 C   0  0  0  0  0
  -14.1680   12.0520    6.1210 C   0  0  0  0  0
   -5.8830   17.4740   -5.6800 C   0  0  0  0  0
   -9.0680   17.1150   -3.5730 C   0  0  0  0  0
   -9.9260   17.8710    1.1670 C   0  0  0  0  0
   -8.6630   17.8220    0.2180 C   0  0  0  0  0
  -11.2800   15.6530    5.7110 C   0  0  0  0  0
  -13.5190   12.9170    7.2560 C   0  0  0  0  0
  -11.3700   15.7810    3.2710 C   0  0  0  0  0
   -7.2840   17.7850   -5.1510 C   0  0  0  0  0
   -8.8180   16.8680   -2.0810 C   0  0  0  0  0
  -12.5960   15.1310    6.3280 C   0  0  0  0  0
  -12.8290   12.0770    8.4190 C   0  0  0  0  0
   -6.3150   18.8260   -0.0240 C   0  0  0  0  0
  1 22  1  0  0  0
  2 28  1  0  0  0
  3 28  1  0  0  0
  4 29  1  0  0  0
  5 29  1  0  0  0
  6 30  1  0  0  0
  7 31  1  0  0  0
  8 30  1  0  0  0
  9 32  1  0  0  0
 10 36  2  0  0  0
 11 37  2  0  0  0
 12 38  2  0  0  0
 13 39  2  0  0  0
 14 40  2  0  0  0
 15 16  1  0  0  0
 15 32  1  0  0  0
 16 36  1  0  0  0
 17 33  1  0  0  0
 17 41  1  0  0  0
 18 31  1  0  0  0
 18 37  1  0  0  0
 19 34  1  0  0  0
 19 36  1  0  0  0
 20 33  1  0  0  0
 20 38  1  0  0  0
 21 35  1  0  0  0
 21 39  1  0  0  0
 22 40  1  0  0  0
 23 24  2  0  0  0
 23 25  1  0  0  0
 24 26  1  0  0  0
 25 27  2  0  0  0
 26 41  2  0  0  0
 27 41  1  0  0  0
 28 34  1  0  0  0
 29 35  1  0  0  0
 30 37  1  0  0  0
 31 38  1  0  0  0
 32 33  1  0  0  0
 34 39  1  0  0  0
 35 40  1  0  0  0
M  END
>  <MOLID> (1aaqB1)
1aaqB1

>  <SMILES_CANONICAL> (1aaqB1)
COC(=O)[C@H](C(C)C)NC(=O)[C@H](C(C)C)NC(=O)CC[C@@H]([C@@H](NC(=O)[C@@H](NC(=O)[C@@H](N)C)C)Cc1ccccc1)O	

>  <FINGERPRINT> (1aaqB1)
0000000000000101000000000000000000000001000000000111000000000000000000000001000000000001000000100000010000000001000001110000000000000000000100000000000010000000000000000000000000000000000000000000000000000000000000000000000000100000000000000000000000001100000000000000000000001000100000000000000000001000000010001100000000001000001100000000000000000000010000000000000110110000000000000000011000000000100000000001101000000000001000000010000000000001100000000001100000010000000000000000000000001000000000000000100000010000000000100000000000000000000000100000000000000000000000000000000001000000001000000000000000000000000000000000001000000001000000000000000000000001000000000011100000100100000011100011000000010011000000000000000001000011100000110101000000000000000110000000000000000000000000000000000010000000000000000000000000000000000000001000000000000000000000000001000000000000000000000000000100001100000000000000001000000010000000000000011000000000000000110010000000000010010000000000000000000000000000000010111000000000

>  <MACCS166> (1aaqB1)
000000000000000000000000000000000000000000000000010001000000000000000000010100100001000001111010001000010001011000001100001001011011000100111100011010110111111110111000

>  <OB_MW> (1aaqB1)
577.348

>  <OB_logP> (1aaqB1)
2.4254

>  <OB_PSA> (1aaqB1)
188.95

>  <OB_MR> (1aaqB1)
154.323

>  <OB_ATOMIC_CHARGES> (1aaqB1)
0.2556572397 0.0022754244 0.0022754244 0.0023449067 0.0023449067 0.0304184895 0.033371564 -0.1230656506 -0.2212814115 -0.273330412 -0.2717699772 -0.2714870611 -0.2714750211 -0.248194135 0.0443040594 0.0894979569 0.0505962034 -0.1965678618 -0.1977771713 -0.2027968244 -0.1943134454 -0.4432253419 -2.00181e-05 -0.000321828 -0.000321828 -0.004209992 -0.004209992 0.0289616917 0.0309261952 0.1693622398 0.1728179753 0.1725862298 0.1299147061 0.1726475122 0.1933998337 0.2418406859 0.2591904548 0.26124888 0.2616636942 0.3370989738 -0.0203772764

>  <MCT_HBD> (1aaqB1)
6

>  <MCT_HBA> (1aaqB1)
12

>  <ENSEMBLE_TOTAL> (1aaqB1)
50

>  <ENSEMBLE_COORDS> (1aaqB1)
-3.5422 -4.3158 8.8415 -1.6060 -2.7749 0.7381 0.6141 -2.4275 1.7731 -4.1420 -5.1796 5.0487 -6.0592 -3.6043 5.3026 4.4186 1.2629 -7.2470 -0.1578 2.7471 -5.8001 2.9812 0.6441 -9.1006 -1.1778 0.8447 -1.0410 -0.8052 1.2165 3.8866 1.7807 -0.9706 -6.5475 2.3811 1.1229 -3.9310 -3.8003 -1.5368 2.8997 -2.1838 -2.5302 7.4054 0.1570 1.8154 0.6558 -0.9459 2.0836 1.6592 1.5385 3.3485 -1.6048 1.6532 1.3421 -6.5071 -1.4908 -0.1875 2.1715 0.3440 1.8814 -3.1420 -2.6047 -2.3829 4.7029 -4.0979 -3.7724 7.6434 5.8027 2.8921 -1.5622 5.0630 2.1401 -0.7279 5.1550 3.8418 -2.4493 3.6188 2.2837 -0.7109 3.8154 3.9643 -2.4451 -0.8636 -2.5794 2.0387 -4.6152 -3.7563 4.8976 3.4177 0.2629 -7.7702 0.5933 1.4639 -5.5228 -0.3650 1.9774 -0.7635 0.7816 2.0402 -1.7652 -1.3835 -1.4366 2.8893 -3.7365 -2.7070 5.5475 -1.0279 0.9993 2.6989 2.2004 0.1337 -6.8885 1.2249 1.4878 -4.1384 -2.7388 -1.7694 3.4705 -3.2105 -3.0134 6.9409 3.0134 3.1483 -1.5467
-2.8862 -2.2976 8.2816 0.8216 -0.1374 3.0080 0.3249 -2.4019 3.7623 -1.7806 -5.1554 5.4421 -3.9451 -5.8177 4.4168 4.0405 0.1595 -7.1404 0.6958 3.5590 -5.7083 2.3330 0.1207 -8.8599 -1.3224 3.7525 -1.2097 -2.3939 1.7268 2.4957 0.7609 -0.6947 -6.1480 2.1514 1.1206 -3.6499 -2.7323 -2.9243 2.0029 -4.7632 -3.5641 6.8732 -1.3267 1.3938 -0.7567 -2.5529 1.4814 0.1245 1.7945 3.4899 -1.1799 1.6608 1.4373 -6.2704 -1.8943 -0.3275 1.5371 0.4679 2.5830 -3.0286 -2.8040 -2.2798 4.2378 -2.7770 -2.3981 6.8617 5.5900 1.5696 -0.6333 5.4936 2.6098 -1.4813 4.4131 1.0890 0.0668 4.2133 3.2664 -1.6782 3.2303 1.7065 -0.1029 -0.0264 -1.3587 2.7260 -2.8920 -4.7410 4.5107 2.6774 -0.3547 -7.5324 0.7368 2.0857 -5.3660 -0.5228 2.6741 -0.7564 0.7214 2.5114 -1.6093 -1.4961 -0.9810 2.7619 -3.5129 -3.3944 4.8213 -2.2628 0.9999 1.5155 1.5944 0.0959 -6.5858 1.2285 1.8771 -3.9436 -2.4130 -2.1737 2.9179 -3.7679 -3.1421 6.2950 3.1222 2.8344 -1.0176
-4.9829 -5.7530 5.5108 0.2885 1.5697 3.4805 -0.1391 0.5000 5.6374 -5.2511 -1.7013 6.4634 -3.8001 -2.6242 8.2639 4.2734 0.0531 -7.8735 1.5606 3.6857 -5.7869 3.1242 1.0425 -9.7636 -0.4036 -0.5653 -2.8837 -2.8608 -0.2980 1.2982 0.7370 0.0421 -7.8215 2.3451 0.5606 -4.5805 -0.5164 -2.7166 4.3606 -3.3452 -4.2644 4.0759 -0.0660 -0.1041 -0.5759 -1.1410 -1.0824 -0.1620 0.8851 2.6112 -1.3900 2.1359 1.7048 -7.0165 -0.8051 -0.9141 2.1915 0.6691 1.8887 -3.6910 -2.5910 -1.7867 4.8452 -4.3794 -4.6014 6.0976 4.6470 3.1701 0.5918 4.1015 4.1900 -0.0949 3.9826 1.8798 0.6220 2.8449 4.0020 -0.7987 2.8170 1.7078 -0.0259 0.0918 0.2360 4.1648 -3.8335 -1.9642 6.9085 2.9779 0.1296 -8.6442 1.2610 2.2165 -5.9861 -0.3293 0.4982 -1.9409 0.8160 1.4221 -2.3303 -1.0801 -0.5081 3.5519 -2.9788 -2.6983 5.8965 -1.7073 -0.6963 1.1715 1.8269 0.6099 -7.7965 1.5232 1.4658 -4.6946 -1.3294 -1.8014 4.2857 -3.5995 -3.9106 5.2221 2.2308 2.8044 -0.7826
-3.6578 -5.4602 4.4851 -1.8065 1.7459 3.8488 0.3421 0.8293 4.6499 -5.8464 -2.0294 5.5525 -4.8390 -1.3540 7.7175 4.1012 1.0180 -8.0058 0.5761 3.4657 -5.2863 2.6344 2.1572 -9.5614 0.3454 -1.3472 -2.7081 -2.1348 -2.0609 0.9444 0.7257 0.1180 -7.8335 2.3909 0.5397 -4.6049 -0.5717 -2.1091 4.9262 -3.3892 -4.2610 6.8493 0.8512 -0.9765 -0.4177 0.0773 -2.1833 0.0584 1.0051 1.9333 -1.0297 1.6811 1.9492 -6.7830 -0.3754 -1.2476 2.2194 0.6380 1.3757 -3.3497 -2.7966 -1.5033 4.6422 -3.4069 -4.0583 4.5560 4.7003 3.5547 0.3991 4.2272 3.9638 -0.7920 4.0090 2.5099 1.1335 2.9925 3.4038 -1.3129 2.8767 1.9753 0.6414 -0.6660 0.8117 3.5270 -4.6450 -1.4093 6.2228 2.7699 0.9865 -8.7142 0.7761 2.0129 -5.6581 0.2710 -0.3683 -1.6769 1.0939 0.8450 -2.0837 -1.1966 -0.5587 3.1801 -3.3284 -2.0640 5.8618 -0.9422 -1.8114 1.0945 1.6130 0.9639 -7.7467 1.3933 1.2493 -4.5008 -1.4470 -1.4695 4.3546 -3.3859 -3.5798 5.8292 2.3440 2.4431 -0.6284
-5.5971 -2.7134 8.5554 0.6720 0.0623 3.7702 0.1958 -1.9531 5.0607 -2.0622 -4.2421 7.1155 -3.7436 -5.6533 5.9447 2.8593 -0.1515 -8.3781 2.6865 4.0711 -5.5484 2.6502 1.7234 -9.8980 -0.9186 0.7203 -2.9719 -2.2693 1.1149 1.7466 0.0202 1.8410 -7.9314 2.0058 0.8277 -4.8006 -2.2848 -3.4287 2.8926 -4.4710 -1.2370 6.6673 -0.2642 0.5570 -0.6864 -1.6342 0.0485 -0.2980 1.7050 2.7565 -1.2450 2.1181 2.2875 -7.0562 -1.4584 -1.0621 1.7955 1.0882 2.5715 -3.5829 -2.8516 -2.2218 4.7956 -4.9539 -3.3436 7.4493 5.5001 1.4946 0.3115 4.6052 0.5561 -0.0453 5.1757 2.9013 0.1565 3.3134 0.9527 -0.5736 3.9854 3.2678 -0.3530 0.0502 -1.3147 3.6973 -2.8842 -4.4165 5.8622 1.9186 0.8542 -8.9940 1.6843 2.9836 -5.8650 -0.3224 1.4550 -1.9090 1.0830 1.8759 -2.3146 -1.3932 -1.1984 3.2354 -3.6932 -3.1988 5.4531 -1.8102 0.1241 1.1881 1.2423 1.7102 -7.9522 1.6393 1.9966 -4.7152 -2.2224 -2.4168 3.5823 -4.3818 -2.4567 6.5874 3.0177 2.2549 -0.7485
-1.2914 -3.0775 7.8196 0.2905 1.1204 2.9650 -0.3476 0.0460 5.0601 -4.1949 -4.5228 4.9120 -6.1467 -3.0408 5.3003 2.5462 -0.0265 -8.4703 3.1030 3.8163 -5.2840 1.8003 1.8964 -9.7373 -0.1375 -0.4147 -3.3591 -2.9136 -0.6597 0.4279 -0.1508 1.8462 -7.1551 2.8507 0.7901 -4.5026 -1.7251 -3.0046 3.6003 -3.8599 -2.3958 7.7724 0.1892 -0.7393 -1.0331 -1.0576 -1.5518 -0.7782 1.2331 2.0845 -0.9421 2.1064 2.1959 -6.7709 -1.0146 -1.2952 1.5994 1.2422 2.0197 -3.3634 -3.0752 -1.3109 4.4471 -1.9012 -2.6692 6.5958 4.7864 1.8883 1.4495 4.3561 3.0807 1.0018 4.0767 0.6767 1.0810 3.1699 3.1582 0.1655 2.9774 0.7492 0.3112 -0.1365 -0.1920 3.5826 -4.7376 -3.1235 4.7666 1.4126 0.9384 -8.7176 1.9781 2.8265 -5.4774 -0.0021 0.2876 -2.1298 1.2218 1.1952 -2.1745 -1.3782 -0.7170 2.8799 -3.8593 -2.0681 5.3895 -1.7649 -1.0896 0.4620 1.0274 1.7050 -7.4764 2.0964 1.7546 -4.4192 -2.0590 -1.8254 3.6612 -3.2243 -2.3886 6.7238 2.5137 2.0371 -0.1837
-4.1379 -2.3477 9.4478 0.6473 -0.4867 2.5248 0.2927 -2.0434 4.3695 -1.5540 -4.3108 6.9668 -3.7114 -5.4110 6.3958 5.2540 2.1241 -6.7878 1.2327 4.6270 -5.1817 4.6049 3.4467 -8.7087 -2.1123 0.9642 -3.0363 -2.7293 1.2267 1.8819 1.9918 1.6548 -8.0915 2.2989 1.3725 -4.4886 -2.9434 -3.2992 3.0158 -3.4353 -0.9759 7.2969 -1.2487 0.4429 -0.8813 -2.6195 0.2239 -0.2854 1.1218 2.0858 -1.5103 2.6387 3.1623 -6.4563 -2.1968 -1.0267 1.7011 0.2900 2.3053 -3.7953 -2.7179 -2.1003 4.9937 -4.0737 -2.9983 8.1792 4.6437 -0.3179 -1.0710 3.4574 -0.9320 -1.2259 4.7129 1.1324 -1.0435 2.2465 -0.1426 -1.3331 3.5913 1.8652 -1.1630 -0.2161 -1.6327 3.0047 -2.7442 -4.3094 6.0398 4.3031 2.2440 -7.9534 1.3810 3.2295 -5.7406 -1.2390 1.4456 -2.0228 0.1795 1.5406 -2.5716 -1.6821 -1.2260 3.0421 -3.4449 -2.9704 5.8970 -2.5123 0.2227 1.2116 2.8589 2.3145 -7.5220 1.4087 2.2112 -4.6134 -2.5320 -2.3295 3.6446 -3.6111 -2.1839 7.1890 2.3063 1.2026 -1.3184
-4.2039 -0.2703 7.3567 0.4000 -3.7765 2.9754 -1.2901 -3.9860 1.1862 -2.1309 -3.9589 7.6294 -3.6990 -5.5541 6.5475 4.4767 1.4876 -7.3557 0.2161 3.6197 -5.8969 3.0942 1.3543 -9.3394 -1.6808 1.4610 -1.8233 -1.0933 0.8176 3.3697 1.4203 -0.2738 -7.1014 2.3437 1.3983 -4.1793 -3.5800 -2.5967 2.7078 -5.3186 -2.5838 6.6573 -0.3354 1.2898 0.1221 -1.4858 1.4282 1.0936 1.5310 3.2916 -1.5369 1.7579 1.9898 -6.7425 -1.5751 -0.8454 1.8261 0.3494 2.2788 -3.4031 -2.3432 -2.6757 4.6713 -3.5531 -1.1288 6.4208 5.4753 1.9921 -0.4641 5.3194 2.8018 -1.5271 4.3141 1.5436 0.2825 3.9917 3.2558 -1.9053 3.0864 1.9666 -0.0651 -0.4527 -3.0183 1.9873 -2.7319 -4.4188 6.3249 3.3627 0.7430 -8.0502 0.7006 2.1913 -5.7774 -0.6097 2.0910 -1.1339 0.6461 2.1426 -1.9941 -1.2508 -1.9472 2.6958 -3.3416 -3.3163 5.4894 -1.3383 0.4537 2.2234 2.0803 0.7514 -7.2576 1.2528 1.9236 -4.3879 -2.5306 -2.4442 3.3242 -4.1877 -2.3223 6.2622 2.9137 2.8437 -1.2122
-5.0665 -5.0417 6.5091 -0.2317 1.4737 2.2472 -0.9341 1.4034 4.5875 -5.3849 -0.9616 6.1261 -4.0887 -1.2234 8.2362 4.2147 3.7624 -6.7555 -0.5112 2.2807 -5.7958 3.0916 3.6794 -8.9003 0.0553 -2.2152 -2.8168 -2.4281 -2.2440 1.1632 2.9433 0.6356 -7.6657 2.4949 1.4841 -4.2634 -0.3839 -2.0405 5.0128 -3.2307 -4.0839 4.8619 0.4419 -1.4927 -0.5827 -0.3370 -2.6050 0.0740 0.6461 1.2534 -1.5473 1.7186 2.3358 -6.6786 -0.4898 -1.5236 2.2154 0.4723 0.4286 -3.8338 -2.6252 -1.4552 4.8182 -4.4367 -3.7936 6.7934 4.4593 2.7935 -0.3356 3.5874 3.6029 -0.9632 4.1193 1.4017 -0.1023 2.2920 3.0936 -1.3751 2.9189 0.9301 -0.4819 -0.3102 0.5907 3.4713 -4.0099 -1.0134 6.7452 3.7448 2.8758 -7.8826 0.7743 1.5022 -5.9655 -0.0783 -1.0944 -1.9522 0.7809 0.0536 -2.4706 -1.1297 -0.6519 3.1769 -3.0639 -1.9930 6.0842 -1.2102 -2.0876 1.1814 2.7704 1.8258 -7.4115 1.3572 1.1689 -4.6050 -1.3018 -1.4761 4.4278 -3.5986 -3.3867 5.8014 1.9681 1.8077 -1.1477
-4.6169 -1.3646 8.9979 0.6146 -1.8715 4.5784 0.1772 -3.7909 3.0813 -2.2818 -4.1993 7.1117 -4.5739 -4.7952 6.3408 3.5010 0.2057 -8.3028 2.4475 4.2599 -5.4161 3.1341 2.0789 -9.7951 -0.8038 0.3351 -3.2515 -2.4649 0.5116 1.4821 0.3625 1.7296 -8.0651 2.1915 0.9164 -4.7981 -3.0162 -3.3082 2.9172 -3.3796 -0.4522 6.8387 -0.3385 0.1616 -0.9273 -1.6933 -0.4138 -0.5844 1.2986 2.6733 -1.2237 2.2863 2.4588 -6.9988 -1.4358 -1.5713 1.4796 0.9573 2.4781 -3.6140 -2.5911 -2.0383 4.8153 -4.4821 -2.1975 7.8480 5.0162 1.8171 0.7394 4.7424 3.0789 0.3613 4.0778 0.7512 0.4398 3.4997 3.3765 -0.3307 2.9255 1.0289 -0.1950 0.1327 -2.2868 3.2096 -3.3201 -4.0171 6.0330 2.4728 1.0790 -8.9766 1.6538 3.0428 -5.8359 -0.4183 1.1004 -2.1159 0.9399 1.7416 -2.3682 -1.2225 -1.6799 2.9048 -3.6263 -2.5757 5.6734 -1.8939 -0.4058 0.9013 1.5876 1.7864 -7.9806 1.6640 2.0223 -4.7135 -2.3826 -2.4422 3.5115 -3.7700 -1.6139 6.8433 2.6282 2.3903 -0.6152
-3.5661 -5.4593 4.4916 -1.8949 1.7781 3.8055 0.2711 0.9330 4.6371 -5.8270 -2.0164 5.4222 -4.9446 -1.4773 7.6787 4.1407 1.3051 -8.0084 0.4971 3.4485 -5.3268 2.5543 2.0496 -9.6791 0.3831 -1.3432 -2.7062 -2.0999 -2.0793 0.9573 0.8237 0.0630 -7.8207 2.4102 0.5931 -4.6001 -0.5604 -2.0323 4.9408 -3.3629 -4.2460 6.8529 0.8678 -0.9450 -0.4155 0.1165 -2.1574 0.0801 0.9729 1.9599 -1.0433 1.6706 1.9627 -6.8010 -0.3698 -1.1929 2.2235 0.6242 1.3869 -3.3640 -2.7983 -1.4832 4.6409 -3.3555 -4.0510 4.5592 4.7220 3.3280 0.5135 4.1130 2.2837 1.1037 4.1384 3.9341 -0.6701 2.8483 1.7942 0.5840 2.9772 3.4683 -1.1640 -0.7265 0.8715 3.5069 -4.6705 -1.4307 6.1958 2.8317 1.0151 -8.6999 0.7561 2.0009 -5.6818 0.2796 -0.3593 -1.6823 1.0802 0.8685 -2.0930 -1.2149 -0.5177 3.1739 -3.3298 -2.0508 5.8586 -0.9156 -1.7926 1.1064 1.6670 0.9540 -7.7422 1.3895 1.2713 -4.5103 -1.4484 -1.4207 4.3590 -3.3564 -3.5682 5.8307 2.3064 2.3539 -0.5136
-4.4661 -5.0849 3.9009 -0.4282 1.8140 2.9473 -0.6473 1.0732 5.2620 -5.5876 -1.6481 5.7957 -4.4352 -1.8413 7.9885 4.1604 0.8994 -8.0410 0.5613 3.4841 -5.6013 2.5588 1.6025 -9.7178 0.2482 -1.1554 -2.7776 -2.2718 -1.7395 1.0908 0.8942 -0.2616 -7.5818 2.5310 0.8367 -4.5510 -0.3875 -2.3067 4.9200 -3.6358 -4.6208 6.4021 0.6507 -0.7658 -0.4638 -0.1618 -1.9517 -0.0015 0.8994 2.1117 -1.0745 1.6807 1.8115 -6.9100 -0.3486 -1.2169 2.2771 0.6488 1.5749 -3.4232 -2.6022 -1.6136 4.7587 -3.7144 -3.9142 4.2156 4.5851 3.4657 0.6525 3.7411 4.3603 0.1079 4.2666 2.0504 0.6093 2.5042 3.9106 -0.5077 3.1194 1.6350 0.0439 -0.2211 0.6393 3.8769 -4.2714 -1.5204 6.5236 2.8226 0.6226 -8.6805 0.7936 1.9997 -5.7824 0.1495 -0.1632 -1.7616 1.0212 1.0297 -2.1349 -1.0153 -0.5506 3.3749 -3.1451 -2.3164 5.8979 -1.0529 -1.6012 1.1541 1.6928 0.6679 -7.6812 1.4515 1.4230 -4.5408 -1.2606 -1.5964 4.4365 -3.5371 -3.7418 5.5534 2.2087 2.5982 -0.5569
-4.6139 -1.0283 8.0127 -0.7258 0.2972 4.8266 0.7763 -1.2358 3.5996 -1.2814 -3.4093 7.2729 -2.2810 -5.4732 6.3177 3.4658 0.7880 -8.5331 2.7841 4.0997 -4.7902 3.1126 2.9624 -9.5421 -1.2481 0.6628 -3.3252 -3.2200 0.4971 1.0452 0.3896 2.2908 -7.8293 1.6918 0.8290 -4.8900 -1.5446 -3.3999 3.0218 -4.9391 -3.4941 7.0603 -0.7123 -0.1563 -1.1673 -2.1205 -0.5560 -0.7928 1.2839 2.1511 -1.0179 2.3715 2.7009 -6.7008 -1.5861 -1.0942 1.4728 0.8938 2.3995 -3.3904 -2.7456 -2.2020 4.6126 -3.8704 -1.4634 6.8748 4.8858 0.5241 0.6234 4.9676 1.3447 -0.4393 3.5862 0.1259 1.1343 3.7570 1.8844 -1.0331 2.4637 0.6084 0.5717 -0.4188 -0.3220 3.4852 -1.9222 -4.0312 6.0577 2.4451 1.8177 -8.9499 1.7894 3.1840 -5.4686 -0.6866 1.0534 -2.0773 0.7570 1.4894 -2.2762 -1.6506 -0.9847 2.9075 -3.1117 -3.2697 5.5112 -2.3701 -0.3006 0.6631 1.6177 2.3000 -7.7849 1.4914 1.9981 -4.5715 -1.9564 -2.3448 3.4900 -4.0771 -2.7736 6.5687 2.5519 1.5305 -0.5499
-6.0278 -1.3098 5.7558 1.0897 -1.1517 4.4341 1.0159 -3.2617 3.1562 -2.5792 -1.4193 8.2315 -2.0816 -3.8512 8.3481 5.0664 2.7130 -6.6393 0.2208 3.6376 -6.0196 4.2754 2.8664 -8.9223 -1.9675 0.0467 -3.0178 -2.8554 0.1439 1.9739 2.5316 0.4597 -7.6650 2.2820 1.2984 -4.3481 -1.9954 -3.7617 3.5003 -4.9630 -3.5953 6.6101 -1.0416 -0.0680 -0.8272 -2.3185 -0.6127 -0.2294 0.5716 2.4388 -1.6917 2.2407 2.5592 -6.7304 -1.3958 -1.6420 1.7257 0.0360 1.7014 -3.9535 -2.0920 -2.0825 5.1014 -4.6449 -1.5855 5.5376 4.6020 1.7164 -0.4144 4.3304 2.8105 -1.1488 3.5410 0.7824 -0.0842 2.9684 3.0771 -1.5773 2.2784 1.0339 -0.4717 0.5704 -1.8185 3.1830 -2.0548 -2.6174 7.4814 4.3571 1.9978 -7.7622 0.9579 2.3190 -6.1010 -1.2897 0.8170 -2.0354 0.0565 1.3038 -2.5619 -0.9263 -1.6338 3.0871 -2.7170 -2.8578 6.1429 -2.2190 -0.6335 1.2678 2.9547 1.5820 -7.3936 1.1946 1.7407 -4.7141 -1.7231 -2.6312 3.8900 -4.2289 -2.7325 6.1414 1.9798 2.2201 -1.2594
-2.7673 -6.2450 4.8294 1.3296 -1.2072 2.6331 0.3917 -2.7357 4.2871 -4.6182 -0.4699 5.7475 -5.3279 -2.3505 7.1218 1.1468 -2.9113 -6.0463 2.5788 2.0105 -5.6573 3.0790 -2.1656 -7.2944 0.0487 2.9828 0.3672 -2.2716 1.1554 1.9903 0.9597 0.1317 -7.9158 1.6177 0.1912 -3.0545 -2.8905 -3.0118 2.3410 -4.1149 -4.7248 6.5231 -0.3666 0.9497 -0.7517 -1.7821 0.6519 -0.3000 1.5243 4.1788 -1.6439 1.4754 -0.1463 -5.6733 -1.3830 -0.9218 1.4586 0.9043 2.3891 -3.1643 -2.5986 -2.2285 4.5066 -2.6359 -4.8239 4.7872 5.6245 5.1006 -0.7772 5.0909 5.4781 -1.9525 4.8141 4.3720 0.1834 3.7131 5.1400 -2.2653 3.5382 4.0576 -0.1081 0.1670 -2.1343 2.9150 -4.1993 -1.8301 6.2634 1.6373 -2.0363 -7.1736 1.3547 1.2296 -5.2286 -0.1263 2.4362 -0.9360 1.1307 2.7119 -1.7632 -1.1540 -1.3823 2.8157 -3.8107 -2.7557 5.1130 -1.8245 0.3535 1.1759 1.3176 -0.5731 -6.9745 1.3244 1.1880 -3.7109 -2.3212 -2.2904 3.1532 -3.5477 -4.1901 5.5773 2.9719 4.4259 -1.3982
-3.4020 -5.0856 3.3022 -2.2497 1.8185 5.5637 -0.1291 1.8445 4.2837 -3.1841 -3.3834 7.2128 -0.7558 -3.3791 7.7323 5.2082 1.4567 -6.2351 0.9679 4.0129 -5.3765 4.6277 2.3727 -8.4037 -2.5133 1.0307 -3.0192 -4.0357 -0.6997 1.7099 2.0595 0.5830 -7.6028 2.0641 0.9342 -4.0634 -0.2021 -1.1144 3.4086 -1.3240 -5.1291 4.9602 -1.9435 0.2768 -0.8470 -3.1637 0.6774 -0.0439 0.6533 1.8667 -1.2444 2.5203 2.4082 -6.2534 -2.1051 0.5336 2.0912 0.0448 1.9690 -3.6023 -2.0214 -1.6048 4.7714 -2.8789 -3.8673 3.8278 4.0110 -0.5899 -0.2077 4.2112 0.6969 -0.5452 2.6676 -1.1398 -0.2090 3.0823 1.5369 -0.9025 1.6209 -0.3599 -0.5315 -1.6258 1.6749 4.1982 -1.8465 -2.7583 6.8963 4.3252 1.3207 -7.4506 1.2072 2.5449 -5.6510 -1.6621 1.3163 -1.9194 -0.2008 1.2698 -2.3512 -2.0869 0.4027 3.5253 -1.4846 -2.7716 5.4265 -3.1570 0.0688 1.3301 2.8536 1.3902 -7.1231 1.1857 1.7424 -4.3585 -1.2986 -0.8357 3.8826 -1.8761 -4.0594 4.7268 1.8360 1.0288 -0.9081
-5.4252 -3.3448 6.1022 -0.7224 1.3039 5.6582 -0.4216 -1.1156 5.8030 -1.3592 -4.6961 5.3370 -1.7077 -5.7364 3.1172 1.3204 -2.3038 -6.4899 2.6333 2.4586 -5.7726 0.8280 -1.3097 -8.6444 -1.0529 1.6185 -1.7431 -3.0863 1.2739 1.7710 -0.9998 0.3709 -6.5759 1.1363 0.2754 -3.6254 -0.6354 -1.9111 2.3043 -4.6673 -4.9070 4.0971 -0.0552 2.2142 0.3039 -1.2536 2.6678 1.1103 2.1136 3.5755 -1.3272 1.2947 0.5348 -6.3081 -0.9727 0.8182 2.6131 1.0805 2.5642 -3.2810 -2.4907 -2.1273 3.6895 -4.2413 -3.0368 5.3690 5.9282 2.2217 0.0974 4.8131 1.6673 0.6056 5.8250 3.2601 -0.9123 3.5092 2.1062 0.1414 4.6172 3.6507 -1.3584 -0.3882 0.0651 4.8568 -1.5814 -4.4318 3.8672 0.3467 -1.4694 -7.2843 1.3139 1.7594 -5.5340 -0.1788 2.5792 -1.1607 1.1841 2.4896 -1.8382 -1.3613 -0.0580 3.6966 -2.7656 -3.5369 3.5638 -1.8846 1.5143 1.8479 0.1308 -0.0972 -6.6951 1.1897 1.4231 -4.0600 -1.4230 -1.4594 3.1276 -4.0004 -3.9110 4.3546 3.4096 3.0395 -0.8241
-3.2866 -4.9364 2.3355 -2.1228 1.4537 5.6690 0.0403 1.5731 4.4609 -3.9029 -3.6315 6.3369 -1.6760 -4.0132 7.3537 3.1159 -1.2668 -7.2086 2.5242 3.4197 -5.4814 2.6852 0.0613 -9.1911 -1.4881 2.1022 -2.7868 -3.7544 -0.3022 1.2796 0.0723 0.5353 -7.3478 1.4647 0.3554 -4.0660 -0.2465 -1.3334 3.2185 -1.6171 -5.2851 4.3701 -1.1699 0.8430 -0.7978 -2.5362 1.1184 -0.2043 1.4928 2.8591 -0.8448 2.0941 1.2954 -6.5107 -1.7993 0.7013 2.0307 1.1145 2.4681 -3.2029 -2.1608 -1.7273 4.4794 -2.8825 -3.8209 3.1260 4.5982 0.7939 1.2615 3.3745 0.8724 1.8152 4.8480 1.3975 -0.0352 2.3012 1.5529 1.1113 3.8542 2.0244 -0.6894 -1.4594 1.4962 4.3151 -2.4776 -3.1372 6.4238 2.0658 -0.5782 -8.0448 1.5607 2.2566 -5.5673 -0.7258 2.0558 -1.5911 0.7688 2.0100 -1.8719 -1.9524 0.3776 3.4258 -1.7933 -2.9883 5.0792 -2.7663 0.4030 1.0953 1.2981 0.4696 -7.2778 1.4113 1.5742 -4.2163 -1.3190 -0.9708 3.6894 -2.0723 -4.1655 4.1628 2.5244 2.0867 -0.1038
-5.4318 -3.7779 3.2078 -0.1219 0.8060 5.1969 1.2991 -1.1944 5.4650 -5.1841 -0.7272 6.2601 -4.1633 -1.9991 8.1324 4.2671 0.9662 -8.0500 0.4294 3.2834 -5.7619 2.7386 1.5534 -9.8342 0.6578 -1.2496 -2.6901 -1.7700 -1.2569 1.0950 0.9928 -0.3350 -7.8522 2.5121 0.7436 -4.6415 -0.8330 -3.3085 4.6086 -4.7387 -4.2536 5.7297 0.9515 -0.6022 -0.4239 0.3223 -1.8677 0.1112 0.6149 2.2427 -1.3461 1.7209 1.7048 -7.0301 0.0598 -1.6757 2.4670 0.5504 1.3911 -3.6008 -2.4452 -1.6575 4.8736 -4.5213 -2.9059 3.8746 3.8633 4.1979 0.6405 3.6176 4.4932 -0.6489 3.0887 3.1682 1.3095 2.5392 3.8229 -1.3539 2.1012 2.5342 0.6519 0.5338 -0.3473 4.4775 -3.9207 -1.3641 6.7861 2.9912 0.6020 -8.7675 0.7723 1.8216 -5.9461 0.3622 -0.2096 -1.7637 0.9868 1.0869 -2.2553 -0.4926 -1.1045 3.6673 -3.2774 -2.3439 5.8288 -0.5875 -1.5406 1.2552 1.7943 0.5967 -7.8489 1.4071 1.2783 -4.6804 -1.2413 -2.1662 4.4330 -4.2575 -3.2827 5.1551 1.8118 2.8768 -0.7314
-3.3098 -6.1775 5.5460 -2.1755 -3.6367 1.4096 -3.3939 -1.5166 1.0301 -5.7920 -2.9186 4.2918 -5.6251 -1.3716 6.2301 2.8698 -0.1232 -7.7828 -0.8698 1.1247 -4.6420 1.0706 -1.7162 -8.0895 -0.2121 2.5632 -0.0375 1.2855 -0.8762 3.4445 1.9397 -2.0119 -4.9640 2.5091 1.5406 -4.1345 -2.6607 -0.1300 3.9586 -3.8743 -4.1461 7.1643 1.4542 0.9505 0.5709 1.2792 1.0750 2.0685 1.7780 3.8305 -1.9126 0.9721 -0.0267 -5.6644 -0.6090 -0.3790 2.1981 0.9499 1.5910 -2.4199 -2.5599 -2.4090 4.3929 -3.3482 -4.8460 5.0342 5.7429 5.4495 -1.9471 5.0123 5.5411 -0.8214 5.1948 4.7906 -3.1188 3.6677 4.9923 -0.7836 3.9502 4.2832 -3.0841 -2.0473 -2.1368 1.3124 -4.9069 -1.9502 5.0361 2.2024 -1.3672 -7.2502 0.4082 0.3553 -4.3919 1.1790 2.2906 -0.0707 1.7238 2.3767 -1.4836 -1.3434 -1.5761 2.5307 -3.5547 -2.5055 5.4344 0.6816 -0.1764 2.6382 1.6970 -1.1864 -5.8413 1.4144 1.2324 -3.6714 -2.2615 -1.2588 3.6924 -3.6022 -3.9122 5.9916 3.1638 4.3673 -1.8636
-5.2146 -3.1944 7.1056 -3.5793 0.8041 4.3915 -1.2511 1.3479 3.7409 -1.2510 -1.5010 7.5126 0.1775 -3.4326 6.9214 3.5014 1.1709 -8.3207 2.4485 4.3136 -4.4711 3.1177 3.3589 -9.2998 -1.1160 0.3313 -3.5056 -3.1898 -2.3989 0.5230 0.3476 2.5304 -7.7174 1.7774 0.9184 -4.9114 -0.3830 -1.7615 3.3557 -2.9019 -4.4918 7.1857 -0.8248 -0.6226 -1.3542 -2.2895 -0.8024 -1.0105 1.2417 1.5568 -0.8764 2.2503 3.0407 -6.4980 -1.9488 -0.6244 1.3545 0.9327 2.2090 -3.1898 -2.3587 -2.2048 4.4969 -4.1098 -2.7284 6.3333 4.8818 -0.1784 0.5683 4.9425 0.7811 -0.3726 3.5920 -0.6392 1.0515 3.7191 1.3616 -0.8958 2.4574 -0.1159 0.5522 -2.5577 0.7478 3.2819 -0.7636 -2.3803 6.3854 2.4688 2.1817 -8.7531 1.6025 3.3153 -5.2301 -0.6641 0.6342 -2.1914 0.7808 1.1082 -2.2512 -2.4409 -0.6496 2.7107 -1.8681 -3.0309 5.5754 -2.5135 -1.3875 0.3556 1.5709 2.6066 -7.6182 1.4866 2.0178 -4.4452 -1.5835 -1.5879 3.5368 -3.0096 -3.5216 6.4438 2.5221 0.9174 -0.4699
-1.8809 -4.1277 8.6854 -4.2073 -3.8123 2.1674 -4.8795 -1.4983 1.5982 -4.8420 -2.5167 6.4380 -3.7871 -0.4690 7.3885 2.7143 -0.6896 -7.8667 2.8932 3.8268 -5.5424 2.3190 0.9794 -9.5838 -0.6770 0.6953 -2.6992 0.3721 -2.0725 1.4768 -0.0678 1.3445 -7.3378 2.1578 0.7572 -4.3816 -2.7098 -0.1434 3.5333 -1.1464 -3.9230 6.1436 -0.3185 0.8877 -0.3256 0.0452 -0.5821 -0.3612 1.6869 3.0431 -0.9828 2.1077 1.9382 -6.8071 -1.7464 -1.1980 1.1260 1.2781 2.6241 -3.3307 -2.4073 -2.2642 4.4274 -2.2231 -2.9659 7.9298 5.4048 2.0143 0.8842 4.2543 1.6408 1.4727 5.3738 2.7484 -0.3683 2.9821 1.9663 0.8508 4.1966 3.0438 -0.9479 -3.7714 -2.5210 1.5179 -3.8321 -1.4187 6.2182 1.7087 0.2444 -8.4915 1.8076 2.7816 -5.6679 -0.2015 1.5650 -1.6833 1.2113 2.0288 -2.0070 -2.4379 -2.0527 2.0637 -2.4471 -1.8943 5.8257 -0.4011 -1.3440 0.8590 1.1459 1.2303 -7.4984 1.7949 1.9300 -4.4124 -2.5336 -1.3499 3.4003 -1.8887 -3.0683 6.6131 2.9525 2.6218 -0.3243
-0.9495 -0.5656 7.5479 -3.3314 1.5282 1.7073 -3.6121 0.9238 4.0525 -4.4636 -4.5973 4.5040 -4.0801 -4.7115 6.9067 2.0956 3.1298 -9.6544 3.3415 2.9087 -4.8036 -0.2123 3.1047 -8.9611 -0.6372 1.0748 -1.1441 -3.1958 -2.6583 0.3067 1.6651 4.4873 -7.1046 1.3526 0.2119 -4.6533 -0.9281 -1.9205 3.5972 -2.6681 -2.5489 7.9206 -0.0128 -1.1996 -0.7664 -1.3962 -1.7739 -0.9817 2.1458 0.9416 -0.4375 1.5213 2.3128 -6.2916 -1.9104 -0.9867 1.2522 1.7180 1.5147 -2.7697 -3.0922 -2.0242 4.4317 -1.7472 -1.0451 6.4643 6.3476 0.5728 0.2940 5.5685 -0.5152 0.4316 5.7623 1.8365 -0.1163 4.1418 -0.4260 0.1697 4.4448 1.9160 -0.3738 -2.7621 0.6809 2.8243 -4.1398 -3.7665 5.7291 1.1237 2.6661 -8.5969 1.8699 2.5699 -4.9098 0.1609 0.0157 -1.6510 1.6104 0.4588 -1.7769 -2.7333 -0.7882 2.4290 -2.8610 -2.9555 5.5225 -2.2544 -1.8688 0.2546 1.4588 3.2890 -7.2675 1.6202 1.2911 -4.1325 -2.1216 -1.6428 3.5241 -2.4452 -2.1746 6.7744 3.6055 0.7343 -0.2519
-2.5257 -5.4105 4.4879 -3.6025 2.1778 2.6028 -2.3625 1.8807 4.6856 -3.5954 -2.6438 7.4952 -1.4500 -1.8091 8.4003 5.2374 2.6490 -6.1687 0.6700 4.2041 -4.7865 4.4035 3.7753 -8.1499 -2.0731 -0.2091 -3.3519 -3.3935 -2.2391 1.4323 2.2560 1.4072 -7.5979 2.3303 1.2524 -4.0740 -0.2888 -0.8117 3.6886 -0.9777 -4.4130 6.4001 -1.4286 -0.9308 -1.1761 -2.8086 -1.0596 -0.5656 0.6992 1.1475 -1.2667 2.4063 3.0883 -6.0122 -2.1259 -0.3076 1.6107 0.0955 1.6076 -3.5845 -2.2262 -1.4313 4.8235 -2.4045 -3.9986 4.6436 4.5479 -0.5781 -0.5106 4.4075 0.7594 -0.5262 3.3987 -1.4321 -0.7520 3.1087 1.3477 -0.7925 2.1928 -0.8872 -0.9922 -2.3868 1.5182 3.2168 -2.3820 -1.7869 7.2150 4.3391 2.5495 -7.3759 1.1143 2.8848 -5.3791 -1.4017 0.2183 -2.1759 0.0275 0.6163 -2.5207 -2.4550 0.0212 2.9807 -1.6447 -2.1429 5.9375 -2.7949 -1.2960 0.9207 2.8963 2.2845 -7.0214 1.2730 1.8452 -4.2802 -1.5023 -0.7661 3.8542 -1.6178 -3.6411 5.6943 2.0442 0.5601 -1.0290
-6.3068 -3.8282 7.3488 -2.2535 1.4755 2.0232 -2.7369 1.1149 4.3886 -3.4250 -1.1189 7.8111 -2.0798 -3.1803 8.1887 2.6349 4.6637 -7.7929 -0.7874 1.7253 -5.4818 1.0522 3.8411 -9.4388 1.4266 -2.0689 -2.6231 -1.9087 -2.8679 0.9347 2.5019 1.1913 -8.1362 2.7279 1.6835 -4.8321 -0.5843 -1.8944 4.7026 -5.2720 -3.2495 4.9711 0.1152 -0.9188 -0.9670 0.1619 -2.0338 0.0629 1.8571 1.5459 -1.6418 1.0657 2.4493 -6.8229 -0.8107 -1.1617 2.0572 1.0466 0.5422 -3.7242 -2.9071 -1.9543 4.7708 -4.8962 -3.6704 7.1950 5.5950 2.2206 0.3452 4.6296 1.5257 0.9730 5.3754 2.7081 -1.0053 3.3673 1.2717 0.3031 4.2094 2.4636 -1.6310 -1.8274 0.7026 3.2521 -2.5298 -2.1548 7.1787 2.2332 3.5018 -8.6668 0.6063 1.3794 -5.9582 1.4117 -0.9483 -1.7576 1.8018 0.3090 -2.5136 -1.8768 -0.7906 2.9686 -3.0809 -2.8094 5.9270 -1.0002 -2.0463 1.0169 1.9459 2.2548 -7.8685 1.5759 1.2546 -4.7899 -1.6807 -1.6127 4.2298 -4.5461 -3.2175 5.9587 3.1689 1.7022 -0.9564
-1.5298 -1.7911 7.6400 1.3073 -1.4731 1.4572 0.2524 -3.3867 2.5412 -2.5197 -4.9344 5.2483 -4.9246 -4.5996 4.7280 1.8150 -1.9914 -6.6715 2.5751 2.9253 -5.7599 1.1355 -0.7401 -8.6317 -0.7068 3.7784 -1.5656 -2.1587 1.2831 1.7720 -0.7685 0.3017 -6.1543 1.4918 0.5146 -3.5158 -3.0975 -2.8248 1.6539 -4.0657 -2.2168 6.8838 -0.6180 1.3929 -1.2516 -1.9815 1.3153 -0.6073 2.3835 3.7149 -1.0640 1.4869 0.8277 -6.1711 -1.5900 -0.6762 0.6661 1.4289 2.7939 -3.1122 -2.3851 -2.0596 3.7362 -1.9053 -1.7450 6.2662 4.8523 2.1297 2.0646 3.6514 2.6490 2.3744 5.2833 2.0791 0.6786 2.8008 3.1849 1.3270 4.4924 2.5652 -0.2943 0.0425 -2.2990 1.5111 -3.5163 -4.1354 4.4473 0.7236 -1.1656 -7.3072 1.4002 2.0455 -5.3944 0.0755 2.7202 -1.0348 1.4546 2.6864 -1.6715 -1.1414 -1.4045 1.8345 -3.3872 -2.6333 4.6062 -1.9027 0.6656 0.7425 0.3875 0.0606 -6.4957 1.4698 1.6735 -3.9240 -2.3372 -2.1729 2.3612 -3.1708 -2.1939 6.0449 3.1965 3.1360 0.0415
-1.3524 -5.3073 3.7816 -4.2448 1.4245 4.3517 -1.9493 2.2705 3.9542 -3.7729 -3.5779 6.6635 -2.1598 -2.5079 8.2072 3.3373 0.2690 -8.1850 3.0766 3.7912 -4.5754 3.2623 2.3758 -9.3872 -1.1146 0.4878 -3.3432 -3.6770 -1.6031 0.7840 0.5334 2.3440 -7.6341 1.8926 0.5682 -4.6311 -0.5183 -0.5328 3.7316 -0.4694 -4.2218 6.0445 -1.0364 -0.2623 -1.0933 -2.5227 -0.2330 -0.7988 1.2432 1.7202 -0.7201 2.5366 2.4213 -6.4739 -2.2527 0.0558 1.5642 1.1300 2.1350 -3.1092 -2.4146 -1.5291 4.6405 -1.6307 -3.9413 4.0797 4.4524 -0.3619 1.2080 4.7259 0.4476 0.1691 3.0789 -0.5439 1.6434 3.6477 1.1382 -0.5145 2.0771 0.0809 0.9975 -3.0886 1.4629 3.3836 -2.8321 -2.4111 6.8602 2.4637 1.3986 -8.6707 2.0182 2.9187 -5.2136 -0.6917 0.8741 -2.0417 0.8007 1.1741 -2.0658 -2.7239 0.0694 2.9259 -1.8155 -2.2429 5.7462 -2.8683 -0.6995 0.5883 1.7366 2.1043 -7.5524 1.7077 1.7387 -4.3056 -1.7353 -0.6656 3.8041 -1.2207 -3.5741 5.3230 2.3709 0.9445 -0.1364
-3.1227 0.2945 7.1548 -3.8731 0.5093 2.2488 -1.4746 1.0809 2.4782 -4.3239 -4.8793 4.1145 -5.1999 -4.4059 6.3336 1.4103 1.1294 -8.1069 0.5030 3.2339 -3.4519 1.1997 3.5411 -8.0357 3.1436 -1.6729 0.0528 -1.6543 -3.6427 0.3865 -1.2205 2.6393 -6.1967 2.7177 0.7415 -3.9687 -1.1014 -1.6862 4.1819 -4.6666 -1.8647 7.2366 0.9753 -1.8565 -0.9334 0.6063 -2.9435 0.0576 3.0390 1.2967 -0.2859 0.8520 1.9160 -5.4534 -0.9169 -1.6952 1.4117 1.4268 0.7718 -2.0482 -3.3726 -2.1066 3.9374 -3.3346 -0.4942 5.9851 6.2219 3.6325 -1.9415 6.5199 2.4461 -1.3806 4.8485 4.1017 -1.9599 5.4633 1.6222 -0.8155 3.8720 3.3417 -1.4355 -2.4687 0.1480 1.8289 -4.7456 -3.7614 5.0436 0.4919 2.2915 -7.8225 0.5547 1.8372 -4.0339 1.9933 -0.9192 -0.3143 2.4648 0.2237 -1.1973 -2.1685 -1.3249 2.0347 -3.6155 -2.7493 5.2202 -0.7898 -2.7963 0.5933 -0.0589 2.2999 -6.4161 1.6912 1.0703 -3.3776 -2.1169 -1.7314 3.4946 -3.9543 -1.6764 6.2565 4.1840 2.0374 -0.8757
-4.9444 -3.6055 6.9372 -3.4735 0.9579 4.7037 -1.2338 1.5771 3.8460 -1.0454 -1.7282 7.3814 0.4475 -3.4845 6.4675 3.4438 0.9276 -8.2155 2.7903 4.1406 -4.3500 3.3502 3.1504 -9.1825 -1.2611 0.6594 -3.4352 -3.6610 -1.7866 0.5792 0.4891 2.6889 -7.6198 1.7169 0.8625 -4.8113 -0.4001 -1.4450 3.1761 -2.5725 -4.7754 6.7027 -1.1114 -0.3200 -1.2897 -2.5835 -0.2897 -0.9375 1.2300 1.5619 -0.7918 2.4378 2.9209 -6.3885 -2.1681 -0.2153 1.4118 1.0131 2.2480 -3.0990 -2.2851 -2.0903 4.3751 -3.9045 -2.9674 6.1982 4.5340 -0.8098 0.5562 3.2834 -1.1866 0.8791 4.7472 0.3698 -0.2631 2.1489 -0.4048 0.4207 3.6963 1.0886 -0.6977 -2.5823 1.0031 3.4872 -0.5808 -2.4326 6.1298 2.5501 2.0630 -8.6491 1.8272 3.2656 -5.1216 -0.7830 0.9061 -2.1182 0.7123 1.1783 -2.1658 -2.5263 -0.3436 2.8004 -1.6958 -3.0308 5.2965 -2.8580 -0.8724 0.4169 1.7106 2.5950 -7.5149 1.5515 1.9882 -4.3473 -1.5904 -1.3383 3.4511 -2.7630 -3.7062 6.1336 2.3439 0.6801 -0.3518
-5.1599 -3.7820 6.7369 -4.1413 0.4924 3.8363 -1.9724 1.5337 3.2434 -2.0662 -0.7932 7.4167 -0.1089 -2.3056 7.5250 3.1376 1.1062 -8.5506 2.5258 4.1761 -4.5436 2.6276 3.3050 -9.4422 -0.4452 -0.4766 -3.5776 -2.4924 -3.0211 0.6011 0.0693 2.4279 -7.5553 2.1440 0.8453 -4.8784 -0.3577 -1.2218 3.6010 -2.6242 -4.2550 7.3499 -0.3150 -1.0172 -1.2719 -1.7400 -1.4940 -1.0773 1.2187 1.4888 -0.8749 2.0988 2.9474 -6.5668 -1.8252 -0.8924 1.2401 0.9683 1.9823 -3.2394 -2.2990 -2.1357 4.4941 -4.1235 -3.0469 6.0901 4.9714 0.4999 0.9558 4.5465 1.7763 0.9484 4.1586 -0.5372 0.3454 3.2884 2.1178 0.3100 2.9880 -0.2210 -0.2370 -3.0257 0.5381 2.8200 -1.1126 -1.6433 6.6114 2.0549 2.1151 -8.8422 1.6078 3.1841 -5.2232 -0.2971 0.1103 -2.2897 0.9985 0.9092 -2.2595 -2.4939 -0.8471 2.5177 -1.7926 -2.6761 5.7339 -2.0405 -1.9103 0.3360 1.2949 2.5152 -7.6021 1.6327 1.8771 -4.4510 -1.5700 -1.4034 3.5810 -2.8767 -3.4334 6.4752 2.5482 1.1652 -0.2868
-2.4987 -5.3209 3.8234 -0.5240 2.0635 2.6702 -2.2542 2.0854 0.9012 -5.7686 -2.7259 4.6020 -5.1001 -1.5495 6.6791 2.0393 1.4827 -7.6206 -0.5488 2.2847 -3.3999 -0.2837 1.3632 -8.3031 2.9265 -1.7564 -1.8451 -1.8927 -2.2913 0.3016 0.0551 -0.9739 -6.0619 2.4203 0.4645 -3.9378 -0.8063 -0.7794 4.1662 -2.8467 -3.9590 6.0753 1.5943 -1.6007 0.1545 0.2632 -1.7330 -0.5517 2.3772 1.3760 0.1376 0.2858 1.2306 -5.3864 -0.7144 -0.5612 1.3009 1.2930 0.7018 -1.9340 -3.0094 -1.3257 3.6586 -2.8559 -3.9411 3.7728 5.1917 4.6021 0.1294 5.5045 3.4651 0.7768 3.9305 4.7087 -0.5821 4.5749 2.3488 0.7742 3.0720 3.6737 -0.5906 -1.8271 1.4582 2.2064 -4.8502 -1.6854 5.1982 0.7966 0.6280 -7.6709 0.0613 1.0242 -3.9724 2.6591 -0.9609 -0.7074 2.4437 0.4908 -1.0881 -1.8043 -0.0486 2.0870 -3.3809 -1.9183 4.9184 -0.8944 -1.5818 0.3928 0.3350 0.1990 -6.3011 1.3968 0.7306 -3.3120 -1.7850 -0.7330 3.4294 -2.9870 -3.3785 5.0046 3.4113 2.4426 0.1047
-5.3984 -0.4318 6.6531 0.0733 0.9266 3.0400 -0.3102 -0.4976 4.9826 -2.2222 -2.9786 7.3320 -2.8432 -5.1669 6.3410 1.2050 -0.5683 -7.5190 3.0458 3.8031 -5.6036 1.2721 1.1346 -9.2462 0.8737 -0.7863 -3.4263 -2.4403 -0.9130 0.1662 -0.7104 2.3088 -6.9219 0.3163 3.3265 -3.5875 -1.0796 -3.5829 3.2729 -5.6037 -3.0156 6.0352 0.6892 -0.6212 -1.0662 -0.4593 -1.5995 -0.9784 1.7793 2.1392 -1.2477 1.5448 2.0790 -6.4399 -0.6144 -1.6295 1.4072 2.0614 1.7927 -3.6522 -2.7463 -2.2011 4.1300 -4.3840 -1.0701 5.8763 5.0386 2.1305 1.5218 4.0247 1.2651 1.7017 5.0645 2.9860 0.3482 2.9192 1.2440 0.7628 4.0503 2.9504 -0.5355 -0.0358 -0.5127 3.4956 -2.4375 -3.7425 6.0502 0.5250 0.6442 -8.1029 1.6536 3.2200 -5.5644 0.7032 0.1524 -2.3709 1.8724 1.1299 -2.3762 -1.1182 -1.2256 2.7028 -3.3924 -3.0893 5.0713 -1.2848 -1.3196 0.2430 0.3779 1.7668 -7.1079 1.2661 2.7995 -4.1634 -1.6186 -2.4863 3.3821 -4.5895 -2.4071 5.7115 2.9325 2.0461 -0.3172
-4.2064 -2.6061 7.8883 -3.1885 2.0451 3.2643 -1.7089 0.9613 4.8753 -0.2475 -2.1642 7.0574 0.4120 -4.1494 5.7529 4.0336 1.9073 -7.6838 3.1291 4.0089 -3.1682 4.2380 4.2994 -8.0270 -2.0822 1.2894 -3.1850 -4.1859 -1.5575 0.8400 1.2249 3.9253 -6.9208 2.3777 1.0704 -4.1248 -0.6450 -1.8608 2.7538 -2.7718 -4.5594 6.7994 -1.7973 -0.3637 -1.4913 -3.1848 -0.2547 -0.8962 0.9323 0.8075 -1.0558 2.9440 3.3562 -5.4786 -2.3526 -0.2374 1.3569 0.5994 2.1275 -3.0715 -2.2773 -2.0082 4.4018 -3.4521 -2.3617 6.7034 4.0366 -2.1353 -1.1785 2.8476 -2.4405 -1.7285 4.2342 -0.8453 -0.5427 1.7644 -1.4751 -1.6916 3.2379 0.0566 -0.5264 -2.0633 1.0442 3.4071 -0.3334 -2.8371 5.7074 3.2938 3.2082 -7.8716 2.2027 3.4779 -4.2398 -1.3375 0.9905 -2.0137 0.1462 0.9574 -2.3434 -2.4897 -0.2806 2.7981 -1.7440 -3.0783 5.2082 -3.2916 -0.7830 0.5093 2.3745 3.5375 -6.7210 1.7593 2.0904 -3.8314 -1.6743 -1.4619 3.2870 -2.7122 -3.4355 6.3138 1.9579 -0.2654 -1.1326
-4.2505 -1.2661 7.6106 -1.3684 -4.6731 0.9750 -2.2814 -2.7317 -0.2700 -4.4438 -4.6063 3.1884 -5.6459 -3.5491 5.0227 0.7509 -2.4319 -5.7444 2.6733 2.1651 -5.2622 -1.3915 -1.9622 -6.6621 -0.6607 3.1779 -0.5568 1.2217 -0.8386 3.1637 -1.0661 0.6656 -6.0112 1.6006 0.1780 -2.7918 -2.8745 -1.1798 2.3941 -3.1127 -0.6706 5.2411 0.4355 1.7990 1.0621 1.3702 0.6261 1.2726 2.1419 3.8353 -0.6426 1.1476 0.3126 -5.4468 -0.2715 -1.1033 1.4064 1.4106 2.4738 -2.5473 -2.0927 -2.8714 3.7849 -3.5425 -2.2489 6.8583 6.3733 4.4332 -1.0198 5.5331 5.1200 -1.8146 5.8430 3.4963 -0.0448 4.1003 4.9083 -1.7087 4.5152 3.2985 0.0517 -1.1541 -3.2282 0.6029 -4.5429 -3.3381 4.0061 -0.0315 -1.4483 -6.5842 1.3744 1.5698 -4.7662 0.2890 2.1336 -0.4105 1.5935 2.4964 -1.1082 -0.8491 -2.3668 1.8127 -3.2184 -3.0391 4.6862 0.7619 -0.4899 2.0802 -0.0777 -0.0635 -5.9632 1.4892 1.3001 -3.2780 -2.0640 -2.0607 2.6649 -3.2928 -1.8300 5.5863 3.6077 4.0080 -0.8374
-4.0756 -5.1057 1.5204 -3.9908 1.0970 4.8469 -1.5392 1.4558 4.8811 -3.0201 -2.3246 6.8429 -2.5242 -4.6694 6.4627 1.2784 -2.2111 -6.7967 1.7220 2.1070 -5.1802 -0.9416 -2.4548 -5.8504 2.4452 1.1528 1.2645 -2.6891 -0.5922 0.1888 -0.7536 0.6676 -6.7448 2.0391 -0.2031 -2.7946 -1.0642 -1.5789 3.7894 -3.0834 -5.5525 3.9300 0.6211 0.3174 0.0053 -0.7931 0.8061 -0.2273 2.8578 3.3691 -0.6896 0.6244 -0.0566 -5.0269 -1.6365 0.4492 1.9779 1.5443 1.9753 -2.1889 -3.3602 -1.9530 3.8898 -3.6457 -4.0144 2.3317 6.6985 4.3882 -2.2978 6.6413 3.7628 -1.1079 5.4721 4.7240 -2.9981 5.3539 3.3915 -0.5417 4.2822 4.3765 -2.4768 -2.7481 1.2402 4.0037 -2.5398 -3.3104 5.8003 -0.1115 -1.6307 -6.7099 0.8290 1.2097 -4.3499 1.5320 1.5084 0.2356 2.3376 1.9671 -0.9746 -2.6056 0.1154 2.9975 -3.4354 -3.2336 4.5738 -1.7982 0.1146 0.6508 -0.1255 -0.2207 -6.1723 1.5464 0.8926 -3.0527 -2.2228 -1.2193 3.6091 -3.3403 -4.4001 3.6016 4.2196 3.6428 -1.2226
-6.0254 -0.6214 5.5655 -0.2636 1.1682 2.6186 -0.7828 0.1000 4.7499 -2.7042 -2.3261 7.3148 -2.5868 -4.7112 6.6413 1.4568 -0.6443 -7.3710 2.3189 3.9696 -5.3954 0.8019 1.0372 -8.9926 1.4060 -1.0593 -3.2732 -1.8823 -1.8335 -0.0604 -1.0850 1.5594 -6.3725 -0.0721 2.8361 -3.2188 -0.6427 -3.3520 3.6800 -5.6477 -3.2588 5.5040 1.3030 -0.9708 -0.9049 0.3741 -2.1549 -0.7701 1.7783 1.9338 -1.0374 1.1893 1.9687 -6.1956 -0.1826 -1.7332 1.5172 1.9634 1.7426 -3.4677 -2.6613 -2.2210 3.9403 -4.7821 -1.1616 5.1164 5.2471 3.0678 1.1890 4.6296 1.9098 1.4857 4.7975 3.8627 0.0599 3.4634 1.4975 0.7273 3.7303 3.4694 -0.6591 -0.2178 -0.1457 3.3688 -2.4645 -3.2816 6.1737 0.3895 0.3340 -7.7922 1.0999 3.0851 -5.2861 1.0849 -0.1955 -2.1895 2.0146 1.0108 -2.2177 -0.9855 -1.2076 2.6002 -3.3121 -3.0363 4.9416 -0.6940 -1.8729 0.2446 0.0746 1.3510 -6.7256 0.9257 2.5550 -3.8799 -1.3770 -2.3946 3.4586 -4.7127 -2.5187 5.2197 3.0334 2.2422 -0.3076
-3.7675 -3.5427 7.6311 -4.5391 1.3421 3.2041 -2.8983 0.9685 4.9751 -0.3173 -1.1556 7.1252 1.2705 -2.7315 6.0729 5.3983 2.5422 -6.1385 1.6005 4.4774 -3.5078 4.7777 4.5677 -7.3214 -2.4975 1.0771 -3.1463 -3.4834 -2.3834 0.7980 2.1014 2.7320 -7.3857 1.8796 1.0997 -4.4719 -0.4638 -0.8451 3.0494 -1.4201 -4.4991 6.8494 -1.9599 -0.6184 -1.5649 -3.2837 -0.6347 -0.8298 0.7147 0.8099 -1.2881 2.8212 3.4733 -5.3124 -2.6362 -0.3174 1.4381 0.1205 2.0399 -3.3025 -1.9685 -2.0115 4.3882 -3.0034 -2.8394 6.6536 3.8147 -2.1441 -1.4512 4.1328 -0.8598 -1.2088 2.4308 -2.5180 -1.6799 3.0925 0.1519 -1.1796 1.4657 -1.5821 -1.6449 -3.1085 0.9330 3.4772 0.0445 -1.8790 5.8498 4.4285 3.1766 -7.1037 1.5290 3.4886 -4.6502 -1.6295 0.7804 -2.0629 -0.1770 0.8553 -2.5158 -2.8473 -0.4331 2.8656 -1.0708 -2.7233 5.2660 -3.1393 -1.2344 0.5398 2.9967 3.1111 -6.6326 1.2321 2.0884 -4.1314 -1.6049 -1.0976 3.4202 -1.8455 -3.4752 6.3267 1.8099 -0.1899 -1.4000
-3.8007 -5.0585 2.1597 -0.2270 2.0799 2.7209 -2.0642 1.7042 4.2791 -6.1546 -1.6427 3.2329 -6.0212 -1.6081 5.7149 0.3452 2.1564 -6.8231 -0.4626 -0.8535 -2.9386 -0.4801 0.1323 -7.8676 4.1937 -1.4829 -0.4848 -0.3526 -1.1182 0.4974 2.1903 -0.8048 -6.2793 2.1456 1.3843 -3.5571 -1.1763 -1.6494 5.0953 -4.6541 -4.4491 4.6074 2.8532 -0.5979 1.3392 1.8525 -1.7216 1.1925 2.4072 1.8138 -0.2470 0.4015 -0.0423 -5.0208 0.2228 -0.8938 2.7363 2.0360 -0.0779 -1.7617 -2.9772 -1.4287 3.6400 -3.5058 -3.7841 2.7274 3.3863 5.5500 -2.0993 2.0952 5.2027 -1.9494 4.4370 4.6505 -1.6591 1.7546 3.9341 -1.3328 4.1224 3.4761 -1.0830 -0.7726 1.1173 3.7522 -5.2683 -1.3890 4.4274 0.6902 0.7612 -7.2831 0.7918 -0.6150 -3.7502 3.6610 -0.3106 0.0915 3.0076 0.5994 -0.9320 -1.0067 -0.2458 3.1299 -3.9599 -2.1499 4.4086 0.4617 -1.2023 1.4119 1.1792 -0.1166 -6.1578 1.7107 0.3609 -3.0346 -1.6929 -1.1909 4.0836 -4.0955 -3.5862 3.9388 2.7268 3.0965 -0.9257
0.5634 -4.1154 7.1093 -2.8779 2.7917 4.0071 -1.9491 1.1603 5.5685 -0.2864 -4.0367 3.0887 -2.2257 -5.3363 3.9219 4.7513 0.5711 -6.3277 3.1280 3.9635 -2.9303 5.5304 2.7389 -7.0834 -2.0341 2.9005 -2.4070 -4.8177 0.3576 1.3948 2.2463 2.9241 -6.9527 1.6735 0.9914 -4.1031 -0.7545 -1.0435 2.7982 -0.8262 -1.9148 6.5468 -2.3902 0.9963 -1.0353 -3.5115 1.5714 -0.1974 0.6341 0.8334 -0.8207 3.4630 2.7781 -4.9874 -2.5823 0.7726 1.8549 0.7177 2.4799 -2.6109 -2.4459 -1.7050 4.2568 -0.4460 -4.1370 6.1001 1.9701 -3.1435 -1.7100 2.8537 -2.2311 -1.2674 0.5820 -2.7695 -1.9109 2.4175 -0.8750 -0.9848 0.1755 -1.5171 -1.6383 -2.0254 1.5457 4.1070 -1.7169 -3.9631 3.5599 4.3803 1.8552 -7.0273 2.4412 3.2879 -4.0962 -1.4131 2.0955 -1.4151 -0.1241 1.4973 -1.9569 -2.6185 0.4332 3.2601 -1.9498 -2.9869 4.6848 -3.7208 0.8112 1.0810 3.2529 2.5799 -6.3365 1.6047 2.1159 -3.6115 -1.8118 -0.8402 3.3854 -0.9887 -2.9116 5.8536 1.1308 -0.5257 -1.1679
-1.1948 -3.7698 6.7018 -3.9341 -3.1614 0.1873 -3.6371 -0.7017 0.0556 -6.0860 -2.1375 3.4231 -5.9783 -1.8972 5.8336 0.0229 -2.7027 -5.0706 1.1520 2.3989 -4.6953 0.8642 -1.5656 -7.0396 3.7528 1.1190 1.1360 0.7723 -2.8270 1.8763 -1.2607 0.5197 -5.7921 2.6063 0.1607 -2.7665 -2.7100 -0.5563 3.1551 -3.5418 -2.5746 6.9499 1.8126 0.0152 0.3167 1.3622 -0.5147 1.6641 2.9825 3.6213 -0.3839 0.6150 0.0344 -4.5196 -0.8413 -1.2940 1.2103 1.7131 2.0322 -1.7359 -3.2032 -2.8220 3.3605 -1.8630 -3.2562 5.5517 5.7006 5.9136 -2.7891 6.1909 5.2048 -1.7560 4.2732 5.9111 -3.0533 5.2971 4.4069 -0.9300 3.4482 5.1703 -2.2922 -2.9389 -2.0291 0.2225 -5.1440 -1.8510 4.5727 -0.2258 -1.6111 -6.0816 0.7092 1.2777 -3.7796 2.4988 1.3603 0.5087 2.7744 2.1596 -0.7600 -2.0176 -2.1089 1.4235 -4.0006 -2.8549 4.5767 0.4301 -1.6902 1.5648 -0.3588 -0.2448 -5.4550 1.7859 1.0748 -2.7346 -2.6776 -1.7071 2.7325 -3.1332 -2.8510 5.8280 3.9823 4.3484 -1.2167
-1.9577 -4.2209 6.1604 -4.1463 -0.0714 4.8312 -1.8516 0.6517 5.4084 -3.3527 -3.6495 0.2404 -3.9121 -5.6083 1.5715 0.6019 -3.4557 -3.8664 1.1362 1.0306 -4.5328 -1.6126 -3.4878 -4.7475 3.0896 2.8887 1.3448 -2.2298 1.1138 0.2590 -1.4992 -0.7867 -4.7778 2.0027 0.0940 -1.4545 -0.7419 -1.5584 3.2653 -3.1727 -5.4736 4.1686 0.9889 1.9285 0.8349 -0.4015 2.5228 0.9075 3.1076 4.1729 -1.4431 0.1597 -0.7325 -3.1673 -1.4200 0.9972 2.4337 1.5809 2.3279 -1.9026 -2.9365 -2.1820 2.8330 -2.4426 -3.4921 5.0334 6.4245 4.1552 -4.1655 5.1811 4.3524 -4.6384 6.6318 3.9411 -2.7437 4.0484 4.3347 -3.7290 5.5811 3.9163 -1.9028 -2.9175 0.6549 4.3383 -3.7394 -4.1090 1.6291 -0.7792 -2.8562 -3.7353 0.4575 0.6835 -3.2248 2.0014 2.9869 0.4343 2.5667 2.8312 -0.9723 -2.4486 0.1435 2.9875 -2.7250 -3.6105 2.6542 -1.4412 1.4573 1.1341 -0.7535 -1.3630 -3.9905 1.4342 0.9660 -2.1067 -1.9139 -1.2745 3.0372 -2.8291 -4.3073 4.0124 4.2305 4.0883 -2.4183
-2.2379 1.0677 6.7656 -5.5045 -0.5446 3.1415 -4.1015 1.1556 2.0198 -1.9312 -4.6850 4.6954 -1.6658 -4.0941 7.0414 -0.7333 2.7247 -7.5999 2.3911 3.6302 -3.5034 1.2490 4.0705 -7.9519 0.6553 -1.8228 -3.0662 -2.2042 -3.4077 0.3898 0.0825 5.1330 -5.1334 1.8722 0.5724 -4.5430 -1.4549 -0.4395 3.1002 -2.1020 -1.4498 7.6129 -0.3243 -0.8833 -1.0644 -1.4964 -1.8236 -1.2565 2.7788 -0.2254 -0.5142 0.8131 2.9337 -5.2134 -2.6592 -1.1563 0.7230 1.5595 0.9735 -2.2812 -2.8713 -1.9309 4.1778 -2.6329 -0.0126 5.9209 6.9898 0.5607 -0.7042 6.5626 -0.7104 -0.8148 6.0274 1.6363 -0.5492 5.1391 -1.0058 -0.7788 4.7104 1.3648 -0.5291 -4.5515 -0.2852 1.9996 -2.3430 -3.6835 5.7541 -0.0083 3.9947 -7.2297 1.1805 2.7776 -3.8185 0.9390 -1.3673 -1.7533 2.0384 -0.3192 -1.8341 -3.4134 -1.2888 1.9506 -2.0239 -2.2564 5.3119 -2.1267 -2.2316 0.0467 0.2899 4.0913 -5.7531 1.5737 1.3272 -3.6211 -2.4480 -1.1587 3.1118 -2.2617 -1.2255 6.4189 4.2438 -0.0060 -0.6685
-3.9822 -3.5811 6.5279 1.6553 -3.3472 3.0232 -0.4977 -4.2611 2.3256 -4.2143 -4.5658 2.2907 -5.7238 -2.7502 1.5380 2.3523 -2.9759 -3.7627 -0.1816 1.2404 -4.5879 0.1610 -3.7747 -4.4169 0.2508 3.4943 0.5893 0.1837 0.8838 3.7109 -0.4011 -1.9718 -1.7837 2.1956 0.5229 -2.2548 -1.9891 -1.2632 1.0345 -5.6173 -2.4412 4.7749 1.6276 1.5497 0.6033 1.8674 1.3482 2.0795 1.6357 4.6102 -1.7329 0.4146 -0.8950 -3.6655 0.5337 -0.6503 2.0062 0.7772 2.3458 -2.0618 -2.4634 -1.9796 3.1969 -3.5005 -3.2188 5.2348 4.7911 5.9947 -4.2894 3.5134 6.1267 -4.6864 5.0911 5.3552 -3.0207 2.4361 5.6308 -3.8457 4.0947 4.9001 -2.2414 0.4347 -3.0802 2.1718 -4.3223 -3.0918 1.9844 0.9336 -3.2302 -3.3151 0.0167 0.4505 -3.3132 1.5261 3.0044 0.1998 1.7069 3.1560 -1.3060 -0.1908 -1.7604 2.5868 -3.8903 -2.1844 3.1189 0.7676 0.5227 2.6932 0.2412 -1.9799 -2.8318 1.1335 1.0845 -2.5108 -1.6357 -1.6269 2.1506 -4.4429 -2.6100 4.4644 2.7116 5.0188 -2.6791
-4.1060 -4.1188 6.5381 -1.0606 -2.4308 -0.0416 0.2272 -4.1196 1.2243 -5.3611 -2.2943 3.0641 -5.6357 0.0249 3.8780 -0.6847 -1.1591 -4.9034 4.2469 -0.1762 -5.1231 -0.2000 -1.1355 -7.2781 4.4758 -0.1859 -0.3534 1.6575 -1.0488 4.1131 0.6910 1.7936 -6.3148 2.9022 2.6517 -3.6568 -1.9050 -0.0986 2.2147 -4.6644 -1.5238 6.5076 2.8153 0.5493 1.1826 2.9775 -0.5814 2.1758 1.2037 1.4456 -1.0777 1.8254 0.0174 -5.3435 0.6577 -1.1768 2.0265 2.8650 0.5747 -2.6251 -2.3076 -1.7106 3.8397 -3.5299 -3.2774 5.5411 0.4593 5.6609 -0.9889 1.3230 5.1437 -0.0967 -0.2097 4.7921 -1.9405 1.5954 3.7173 -0.0944 0.0486 3.4728 -1.9446 -0.8178 -3.0335 1.3218 -4.6432 -1.0099 3.4040 -0.4441 -0.2970 -6.1184 3.0427 0.7273 -5.0514 3.0798 0.0515 -0.2301 2.6622 1.0746 -1.2756 -0.4499 -2.0254 2.3925 -3.5239 -1.1772 4.4141 1.7025 -0.9345 2.8910 0.7406 0.6202 -5.9501 2.9317 1.4231 -3.7148 -1.6244 -1.1520 2.7774 -3.9641 -1.9901 5.6155 1.0012 2.9164 -0.9990
-5.2393 -3.9037 1.5566 -0.5850 -4.7976 3.5858 -0.1360 -4.0542 1.2678 -3.1494 -0.4101 6.1251 -5.4547 -1.1745 5.9779 2.6836 -3.3208 -4.8950 0.2286 1.2917 -4.6768 2.3341 -2.1113 -6.9649 3.7295 1.0974 -0.1102 0.8957 0.1234 4.1886 -0.4539 -1.7495 -5.3747 3.0641 0.8504 -3.0915 -2.0408 -1.4504 1.8299 -5.9434 -2.9356 3.9323 1.5609 1.0195 0.9239 2.1599 0.4192 2.1810 1.4384 3.9015 -0.7029 1.4367 -0.8013 -4.4245 0.6402 -1.4002 2.4559 1.2999 1.7487 -1.8831 -2.4527 -2.2884 3.9560 -4.2536 -3.4823 2.4988 2.1618 7.2051 -3.3450 2.9896 7.0142 -2.3014 1.0660 6.2812 -3.5755 2.7857 5.8860 -1.4064 0.8851 5.2304 -2.7550 0.1131 -3.7681 2.7296 -4.0303 -1.5347 5.6235 1.6623 -2.7480 -5.8461 0.7915 0.2782 -3.7037 2.5956 1.8839 0.2227 2.1173 2.5875 -1.0355 -0.2117 -2.3445 3.1463 -3.8033 -1.7813 4.1333 1.1460 -0.2669 3.0520 0.7624 -1.7271 -5.1942 1.8596 0.9698 -2.8831 -1.6524 -1.9566 2.8781 -4.7911 -2.7897 3.5419 1.7902 5.0085 -1.6377
-1.4479 -6.0031 2.6092 0.0208 -1.9363 4.9633 1.2867 -1.9240 2.8376 -5.4649 -1.4381 3.2869 -6.0616 -3.7863 3.5325 2.9940 -3.3621 -1.8056 1.3730 0.2847 -3.9254 1.1530 -4.7748 -2.3678 2.0809 4.8124 0.5581 -1.9748 2.0369 2.7175 -0.0479 -2.5490 -3.3365 2.3516 0.9176 -0.8419 -1.5359 -2.1135 1.2174 -3.9228 -5.5172 3.4655 0.7598 2.8875 0.9379 -0.6555 2.3797 0.7547 1.2919 4.7307 -2.3912 1.2110 -1.1664 -1.9761 -0.5537 0.3456 1.9983 0.8971 2.3940 -1.8784 -2.6260 -2.2246 3.2664 -1.8387 -4.6959 3.0279 3.9602 5.2128 -5.7120 2.7659 4.6254 -5.9053 4.3460 5.6465 -4.3806 1.8666 4.4240 -4.7824 3.5177 5.4495 -3.3386 0.3539 -1.1364 3.7258 -4.9313 -2.7961 3.6929 1.4916 -3.5148 -1.7257 0.8147 0.1076 -2.5300 1.0603 4.0169 -0.0323 1.5507 3.5949 -1.4136 -0.8874 -0.6239 3.0180 -3.6779 -3.1558 2.8970 -1.1236 1.5994 1.9493 0.8020 -2.3896 -2.4656 1.4575 1.1506 -1.6509 -1.7046 -1.7205 2.3678 -3.1882 -4.5794 3.1769 2.2359 4.7911 -3.5411
-5.4776 -1.2478 1.0030 -0.3284 -2.1186 5.9057 1.5267 -1.6923 4.3226 -1.7602 -5.1465 3.8668 -2.9834 -5.7335 1.8530 0.0059 -3.6220 -1.4696 0.9717 0.5403 -4.4282 1.1790 -4.0153 -3.5498 1.8686 4.0973 0.9619 -2.1878 1.7506 3.1894 -1.0912 -1.9805 -4.4545 1.7423 0.3745 -1.2085 -0.6158 -2.0662 1.9331 -4.4990 -3.6982 0.8012 0.3046 2.2962 0.8340 -0.2102 2.6654 2.2102 1.7687 4.5127 -1.9715 0.3572 -1.1823 -2.8319 -0.2629 0.4535 3.1274 0.7455 2.3025 -2.0155 -2.4242 -2.2717 3.3871 -4.2771 -1.6010 1.6874 5.2160 4.7864 -4.5129 5.3528 5.0634 -3.2034 3.9155 4.4153 -5.0402 4.2067 4.9599 -2.3131 2.8580 4.3117 -4.2155 0.2576 -1.1359 4.9209 -2.2715 -4.5981 2.5520 -0.0733 -3.5563 -2.9755 0.2654 0.2336 -3.1249 0.8779 3.5145 0.1227 1.5421 3.2096 -1.2164 -0.7610 -0.6614 3.9026 -3.1536 -3.3848 2.8040 -1.0169 1.5766 2.8625 -0.3382 -2.1659 -3.5005 1.0100 0.9432 -2.0146 -1.2248 -1.7427 2.9470 -4.0291 -2.9394 1.6408 3.0141 4.5530 -2.7889
-6.1774 -0.2453 2.6778 -2.4860 -2.7203 -0.3291 -2.0201 -0.2897 -0.3007 -2.2711 -4.2396 5.1761 -4.6374 -4.1452 5.7292 -3.1140 -1.1818 -5.0700 1.5730 -1.3762 -2.8666 -2.4270 1.0720 -5.5625 3.5254 2.0447 1.7863 1.3642 -2.5680 2.9499 -0.2798 -1.0953 -5.4287 0.6206 1.5500 -1.3757 -2.1533 -0.2539 2.9280 -6.1076 -2.4794 4.1230 3.0258 -0.1831 1.0997 2.3958 -0.4740 2.4481 3.1845 3.1941 -0.7672 -0.2094 0.1501 -3.4672 0.1973 -1.0090 1.6866 2.8372 0.9507 -1.6767 -2.8121 -2.4802 2.8534 -5.0344 -1.0992 2.6527 6.0152 5.4702 -3.0244 4.7978 5.2265 -3.5420 6.3701 4.9343 -1.7220 3.8450 4.4205 -2.8013 5.4886 4.1827 -1.0374 -1.4792 -1.6577 0.0375 -3.6397 -3.9147 4.6169 -2.2770 -0.0134 -4.6086 1.2099 0.0569 -3.1953 2.8629 1.2901 0.7784 3.4196 1.7025 -0.5781 -0.9926 -1.8008 1.4671 -3.6667 -2.5032 4.0318 1.2934 -1.4894 2.3683 -0.8186 -0.3870 -4.5842 1.4876 0.9282 -1.9839 -2.0243 -1.3982 2.5030 -5.0725 -2.0578 3.6207 4.1860 3.8888 -1.6131
-0.3884 -4.8773 1.2247 -0.2809 -1.7921 5.6538 1.5239 -1.1541 4.0821 -5.1536 -1.6134 3.2349 -5.3367 -3.9157 2.4788 3.2781 -1.0812 -4.8064 2.8088 -0.4392 0.3502 2.4761 -2.9760 -3.5253 -0.7765 4.5019 -0.3645 -2.3094 2.2666 3.2485 4.8246 -1.8724 -1.6879 3.0227 2.7340 -0.6354 -0.7580 -1.0617 1.6412 -2.9625 -5.1033 1.8554 0.3613 2.9819 1.0809 -0.3871 3.3532 2.3410 -0.7760 2.3000 -2.4918 3.1004 -0.3700 -2.0798 -0.2915 1.1281 3.2539 1.1323 1.5182 -1.2038 -2.2111 -1.9054 3.2456 -1.0181 -3.9325 2.0883 0.3054 2.9268 -6.5924 -0.1233 3.9763 -5.8678 0.3860 1.6114 -5.9834 -0.4872 3.7966 -4.4716 0.0577 1.4466 -4.6897 0.2723 -0.6881 4.7857 -4.4016 -2.9224 3.1310 3.6010 -2.0803 -3.7239 3.2438 0.3680 -0.8501 -0.4602 3.1264 -0.1853 0.2670 2.6575 -1.4442 -0.7768 -0.0940 3.8635 -3.0712 -2.7263 2.4021 -1.1152 2.1952 2.9704 3.9192 -1.4372 -2.3981 2.4748 1.6672 -0.9102 -1.2350 -1.0459 2.7719 -2.3741 -4.0561 2.0989 -0.3610 2.5884 -3.8913
-3.6677 1.6574 1.8904 -0.6076 -4.2648 4.7246 0.7289 -4.6387 2.6726 -3.7082 -4.4305 2.5295 -5.2095 -3.2582 1.0219 2.7236 -2.6806 -2.8619 -1.3234 0.5756 -3.1324 1.8271 -2.2421 -5.0691 3.4154 2.7827 1.1900 0.7429 0.5131 3.7443 -0.8183 -2.6333 -3.3580 -0.6242 1.4063 -0.2020 -0.8614 -2.3383 1.1469 -4.7577 -0.5260 0.8474 2.4985 0.5888 0.9628 2.7184 0.2498 2.4214 1.4469 3.8100 -0.8603 0.5485 -0.9063 -2.6349 1.2492 -1.5766 2.8592 1.3028 1.4453 -1.4847 -2.2157 -1.9162 2.9940 -3.0660 0.3790 2.0943 2.3025 6.0451 -4.4156 3.2068 6.0384 -3.4196 1.0716 5.2871 -4.2812 2.9531 5.2706 -2.2116 0.8422 4.5664 -3.1691 0.4426 -3.6864 3.8079 -3.8240 -3.2201 1.6267 1.5255 -2.8128 -3.7687 -0.4928 -0.0891 -2.0600 2.2722 2.0718 0.7311 2.0658 2.4272 -0.7375 0.0953 -2.2777 3.3730 -3.5440 -1.9423 2.4066 1.4506 -0.2282 3.0696 0.2945 -2.1239 -3.2345 0.0498 0.9841 -1.1406 -1.0232 -2.1984 2.3543 -3.8614 -0.6443 1.6749 1.8305 4.5362 -2.1016

>  <OB_ATOM_TYPES> (1aaqB1)
C.3 C.3 C.3 C.3 C.3 C.3 C.3 N.3 O.3 O.2 O.2 O.2 O.2 O.2 C.3 C.3 C.3 N.am N.am N.am N.am O.3 C.ar C.ar C.ar C.ar C.ar C.3 C.3 C.3 C.3 C.3 C.3 C.3 C.3 C.2 C.2 C.2 C.2 C.2 C.ar

>  <ENSEMBLE_RMSD> (1aaqB1)
2.170 2.179 2.489 2.511 2.524 2.534 2.541 2.575 2.585 2.597 2.616 2.629 2.636 2.722 2.768 2.789 2.798 2.848 2.859 2.892 2.908 2.913 2.920 2.943 2.952 2.971 2.986 2.990 2.996 3.038 3.109 3.137 3.178 3.203 3.208 3.250 3.313 3.332 3.408 3.511 3.528 3.589 3.788 4.006 4.098 4.104 4.206 4.215 4.446 4.618

$$$$
