
 OpenBabel03071213D

 15 17  0  0  0  0  0  0  0  0999 V2000
    2.0920   69.7980   66.6250 N   0  0  0  0  0
    4.7360   69.3630   62.1450 C   0  0  0  0  0
    3.5150   68.5400   62.5970 C   0  0  0  0  0
    5.7760   69.4590   63.2890 C   0  0  0  0  0
    2.8600   69.1770   63.8480 C   0  0  0  0  0
    6.3620   71.2610   69.0250 C   0  0  0  0  0
    5.0530   71.1360   69.4680 C   0  0  0  0  0
    6.6970   70.9550   67.7120 C   0  0  0  0  0
    4.0560   70.7020   68.6030 C   0  0  0  0  0
    6.0680   70.2360   65.5850 N   0  0  0  0  0
    5.2070   69.8210   64.6830 C   0  0  0  0  0
    3.3960   69.9330   66.3090 C   0  0  0  0  0
    3.8330   69.6340   64.9950 C   0  0  0  0  0
    5.7190   70.5180   66.8190 C   0  0  0  0  0
    4.3510   70.3810   67.2600 C   0  0  0  0  0
  1 12  1  0  0  0
  2  3  1  0  0  0
  2  4  1  0  0  0
  3  5  1  0  0  0
  4 11  1  0  0  0
  5 13  1  0  0  0
  6  7  1  0  0  0
  6  8  2  0  0  0
  7  9  2  0  0  0
  8 14  1  0  0  0
  9 15  1  0  0  0
 10 11  1  0  0  0
 10 14  2  0  0  0
 11 13  2  0  0  0
 12 13  1  0  0  0
 12 15  2  0  0  0
 14 15  1  0  0  0
M  END
>  <MOLID> (1acjA1)
1acjA1

>  <SMILES_CANONICAL> (1acjA1)
Nc1c2CCCCc2nc2c1cccc2	

>  <FINGERPRINT> (1acjA1)
0000000000000000000000000000101000100001000000000100000000000000000000000000000001000001000000100001000010000001000000100001000000000000000001000001000100100000000000000000000000000000000000000000000100000000101000000000000000000000000000000000000000000001000100000100000000001000000000000000000000001000000010000100000000001000000100001000000000000100010000001000000010000000000000000000000000000000000010000000000000000000011000000000100000000000000000000000001000000000010000000000001000001100000000000000010000000000000000000000001000000000000001100000000000000000000001000000001000100000001001000000100000000000000000000000000000000001010000000001000000000001000000000000100000000000100000000000100000100000100000000100000000000000100000000100000000000000000100000000000000000100000000000000000010000000000000000000000000000001000010000000000010000000010000000000000000000000000000001000000000000000010000000000000000000110000000001000011000000000000000100000000000000100000000000000000000100000000000000000010001000000

>  <MACCS166> (1acjA1)
000000000000000000000000010000000000000000001000010000000000000010000000000101010001000001100000011000001000001000000111100000001010101010000101101000100001010010101000

>  <OB_MW> (1acjA1)
198.116

>  <OB_logP> (1acjA1)
3.277

>  <OB_PSA> (1acjA1)
38.91

>  <OB_MR> (1acjA1)
63.5794

>  <OB_ATOMIC_CHARGES> (1acjA1)
-0.1282988569 0.0066292416 0.0051590996 0.0455278305 0.0289346213 0.0015455353 0.000140478 0.0191273804 0.0028331035 -0.2499002545 0.05625225 0.0876363108 0.0081464305 0.0821616558 0.034105174

>  <MCT_HBD> (1acjA1)
1

>  <MCT_HBA> (1acjA1)
2

>  <ENSEMBLE_TOTAL> (1acjA1)
2

>  <ENSEMBLE_COORDS> (1acjA1)
-2.5561 -0.2629 0.6941 0.0879 -0.6979 -3.7859 -1.1331 -1.5209 -3.3339 1.1279 -0.6019 -2.6419 -1.7881 -0.8839 -2.0829 1.7139 1.2001 3.0941 0.4049 1.0751 3.5371 2.0489 0.8941 1.7811 -0.5921 0.6411 2.6721 1.4199 0.1751 -0.3459 0.5589 -0.2399 -1.2479 -1.2521 -0.1279 0.3781 -0.8151 -0.4269 -0.9359 1.0709 0.4571 0.8881 -0.2971 0.3201 1.3291
-2.5378 -0.3672 0.7160 0.1529 -1.3248 -3.5195 -1.2671 -0.8185 -3.4032 1.0799 -0.4830 -2.6684 -1.7542 -0.9595 -1.9767 1.6578 1.2308 3.1003 0.3461 1.0591 3.5162 2.0099 0.9382 1.7839 -0.5995 0.5951 2.6093 1.4796 0.2105 -0.3939 0.5637 -0.2416 -1.2835 -1.1876 -0.1703 0.3433 -0.7776 -0.4424 -0.9658 1.0830 0.4744 0.8607 -0.2491 0.2992 1.2812

>  <OB_ATOM_TYPES> (1acjA1)
N.pl3 C.3 C.3 C.3 C.3 C.ar C.ar C.ar C.ar N.ar C.ar C.ar C.ar C.ar C.ar

>  <ENSEMBLE_RMSD> (1acjA1)
0.000 0.268

$$$$
