
 OpenBabel03071213D

 18 17  0  0  0  0  0  0  0  0999 V2000
   -0.3820   63.5210   71.7960 C   0  0  0  0  0
   -0.6830   61.2010   71.4540 C   0  0  0  0  0
    1.2030   61.9000   72.7340 C   0  0  0  0  0
    5.9640   69.8160   63.3260 C   0  0  0  0  0
    4.0720   69.3780   61.8850 C   0  0  0  0  0
    5.1670   67.5710   62.8830 C   0  0  0  0  0
    3.7670   65.1430   69.6950 C   0  0  0  0  0
    5.0090   65.5070   68.8920 C   0  0  0  0  0
    3.2110   63.7240   69.4520 C   0  0  0  0  0
    4.7490   66.4850   67.7710 C   0  0  0  0  0
    1.9390   63.6250   70.2940 C   0  0  0  0  0
    4.3390   67.9200   68.1360 C   0  0  0  0  0
    1.1740   62.2950   70.3400 C   0  0  0  0  0
    3.8400   69.0560   64.2930 C   0  0  0  0  0
    3.7110   68.6500   66.9140 C   0  0  0  0  0
    4.2920   68.2410   65.5340 C   0  0  0  0  0
    0.3540   62.2480   71.5670 N   0  0  0  0  0
    4.7660   68.9640   63.1150 N   0  0  0  0  0
  1 17  1  0  0  0
  2 17  1  0  0  0
  3 17  1  0  0  0
  4 18  1  0  0  0
  5 18  1  0  0  0
  6 18  1  0  0  0
  7  8  1  0  0  0
  7  9  1  0  0  0
  8 10  1  0  0  0
  9 11  1  0  0  0
 10 12  1  0  0  0
 11 13  1  0  0  0
 12 15  1  0  0  0
 13 17  1  0  0  0
 14 16  1  0  0  0
 14 18  1  0  0  0
 15 16  2  0  0  0
M  END
>  <MOLID> (1aclA1)
1aclA1

>  <SMILES_CANONICAL> (1aclA1)
C[N](CCCCCCC/C=C/C[N](C)(C)C)(C)C	

>  <FINGERPRINT> (1aclA1)
0000000000000000000000000001000000000001000000001000000000000000000000000001000000000000000000000000000000000000000001000000000000000000000000000000000000000000000000000000000000000000000000000000000000000000000000000000000000000000000000000000010000000000000000000000000000000000000000000000000000010000000000001000000000000000001000000000000000000000010000000000000100000000000000000000000000000010000000010000000000000000000000010000000000000000000000000000000000000100000000000000000000000000000000010000000000100000000000000000000000000000000000000000000000000001000000000000000000000000001000000000000000000000000000000000000000000001000000000000000000000000000000000001000000000000000000000001000000000000000000001000000000000000000000000001000000000000000100000000000000000000000000000000000000000000000000000000000000000000000000000100000001000000000000001001000000000000000000000000000000000000000000000000000000000000000000000000010000000000000000000010010000000010000000000000000000000000000000000000001000000000

>  <MACCS166> (1aclA1)
000000000000000000000000000001000000000000000000000000000000000000000000010000000000110000001000001100000001001100110100010000011000000001001100001110001010010110000000

>  <OB_MW> (1aclA1)
256.288

>  <OB_logP> (1aclA1)
3.3374

>  <OB_PSA> (1aclA1)
6.48

>  <OB_MR> (1aclA1)
86.458

>  <OB_ATOMIC_CHARGES> (1aclA1)
-0.0959739313 -0.0959739313 -0.0959739313 -0.0954926967 -0.0954926967 -0.0954926967 -6.37952e-05 0.0003434571 -0.0021335971 0.0046551349 -0.0222582892 0.0256214044 -0.0733046464 -0.0465930623 -0.032811341 -0.0531453385 0.3856939165 0.3883960406

>  <MCT_HBD> (1aclA1)
0

>  <MCT_HBA> (1aclA1)
2

>  <ENSEMBLE_TOTAL> (1aclA1)
50

>  <ENSEMBLE_COORDS> (1aclA1)
-2.5176 -3.1394 5.4086 -3.9050 -3.6904 3.4786 -2.5584 -5.3935 4.5382 3.3279 3.9702 -4.6941 1.4020 3.9485 -6.1561 2.1733 1.8763 -5.1765 0.3128 -1.3305 1.3644 0.7603 0.1078 1.2947 -0.0467 -1.6880 2.7847 0.2805 0.7183 0.0020 -1.4598 -2.2150 2.8337 1.0748 1.9651 -0.2978 -1.4494 -3.6702 3.2516 1.0660 3.5878 -3.7855 0.6410 2.5245 -1.6000 1.5049 3.0416 -2.4739 -2.6036 -3.9513 4.1597 1.9969 3.3382 -4.9321
-3.1774 -2.5096 2.5560 -2.9008 -4.8081 3.3265 -3.5254 -3.0658 4.8816 2.9443 3.0529 -4.9847 0.9050 4.1689 -5.6522 0.7968 1.9147 -4.7857 0.4679 -1.5710 1.3124 0.7118 -0.0877 1.4340 0.6072 -2.2187 2.6674 0.4993 0.5704 0.0941 -0.3952 -3.3383 2.8004 1.4387 1.7422 -0.0519 -1.2704 -3.0926 4.0115 1.3209 3.8150 -3.2930 0.9847 2.6014 -1.1710 1.7951 2.9715 -2.1630 -2.7007 -3.3717 3.6773 1.4982 3.2265 -4.6598
-3.5462 -1.8312 3.1088 -3.6223 -3.9834 2.0102 -2.8244 -3.8420 4.2877 1.3753 4.1813 -4.8179 -0.0841 2.3052 -5.2671 2.1814 1.8980 -4.5267 1.2696 -0.7907 2.5463 1.3464 -0.6909 1.0429 0.8081 -2.1717 2.9405 1.9758 0.6229 0.6552 -0.6380 -2.1258 3.3682 1.3062 1.1570 -0.5856 -1.4688 -2.9677 2.4229 0.4909 2.8071 -2.9714 1.8156 2.5199 -0.8738 1.4586 3.2508 -1.9312 -2.8488 -3.1430 2.9694 1.0047 2.8044 -4.3782
-3.5919 -2.4996 4.0637 -3.1101 -4.8606 3.6813 -3.0313 -3.9485 5.9170 3.0988 4.4645 -4.0466 1.3534 4.9987 -5.6315 2.5549 2.9099 -5.8450 0.0015 -1.5707 1.2520 0.7424 -0.2693 1.0730 -0.0905 -1.9079 2.7195 0.2646 0.4177 -0.1823 -0.9277 -3.1496 2.8957 1.4408 1.0112 -0.9181 -1.2919 -3.3249 4.3546 0.9456 3.2480 -4.0104 0.9669 2.0663 -1.8455 1.4263 2.1814 -3.0920 -2.7456 -3.6550 4.4827 1.9936 3.8884 -4.8682
-2.0253 -2.3450 5.0284 -3.7185 -4.0698 5.0555 -1.3979 -4.6910 4.7975 2.2341 5.0344 -4.4768 1.9719 3.3390 -6.1825 3.5107 2.9597 -4.3570 -0.1004 -1.5008 0.9967 -0.0571 0.0068 0.9898 -1.4563 -1.9705 1.4610 1.1496 0.4719 0.2120 -1.2977 -3.2180 2.2942 0.9352 1.8835 -0.2766 -2.6109 -3.5584 2.9664 1.0666 2.9237 -3.9785 0.8447 1.8863 -1.7563 1.1748 2.9457 -2.4955 -2.4196 -3.6611 4.4465 2.1961 3.5636 -4.7249
-2.6531 -2.2792 4.7317 -3.9363 -4.3196 4.5399 -1.5624 -4.4481 4.9716 1.2786 3.9571 -5.9999 2.7541 2.2625 -5.1006 2.9217 4.5723 -4.3380 0.2311 -1.3081 1.5273 0.1006 0.0714 0.9347 -1.1246 -1.9643 1.5952 1.3701 0.4259 0.1993 -1.0239 -3.2256 2.4159 1.3840 1.8992 -0.1271 -2.4083 -3.7320 2.7597 0.9496 3.2030 -3.7231 0.8826 2.1178 -1.5059 1.4730 2.9605 -2.3528 -2.6187 -3.6879 4.2403 1.9819 3.4950 -4.7683
-3.8452 -3.4534 3.6646 -1.8528 -4.4913 2.7146 -2.5925 -5.0759 4.9423 3.2483 3.1482 -5.2585 1.5245 4.8110 -5.5921 0.9126 2.4751 -5.4573 -0.4315 -0.2934 2.0724 0.5545 -0.5359 0.9574 -0.2957 -1.3691 3.1208 0.2564 0.3972 -0.1899 -1.6487 -1.6414 3.7289 1.5416 0.9923 -0.7097 -1.6031 -2.8993 4.5696 1.6607 3.6946 -3.4477 1.2390 2.1824 -1.5405 1.9627 2.5006 -2.6138 -2.4715 -3.9569 3.9629 1.8408 3.5152 -4.9241
-2.8353 -2.0396 2.0445 -3.8446 -4.0740 2.8713 -3.3128 -2.2995 4.4225 0.9453 4.7749 -3.8230 0.1504 3.4486 -5.6836 2.4581 3.2563 -4.9874 0.7895 -0.9745 2.5324 1.6232 -0.7903 1.2895 0.5706 -2.4444 2.7903 1.4090 0.5998 0.7432 -0.5074 -2.6118 3.8325 2.2930 0.8249 -0.4590 -1.5180 -3.6409 3.3720 0.6406 2.3404 -3.5880 1.4567 1.0250 -1.6674 1.4794 2.1554 -2.3741 -2.8577 -3.0007 3.1857 1.0602 3.4505 -4.5013
-3.5079 -2.3443 3.7231 -3.1012 -4.3926 2.4596 -2.7716 -4.3507 4.8535 0.8902 1.2475 -4.0908 2.1051 2.6114 -5.6732 0.0578 3.4554 -4.6994 0.6298 -1.1154 0.8250 1.2931 0.1993 1.1526 0.4293 -1.9085 2.0918 0.5243 1.3250 0.5048 -1.0075 -2.3582 2.1857 1.3967 2.5508 0.3684 -1.1999 -3.1708 3.4477 2.1096 3.2723 -3.3468 2.0131 2.5934 -0.9803 1.4941 3.2885 -1.9936 -2.6377 -3.5509 3.6016 1.2828 2.6477 -4.4297
-3.1438 -2.4936 5.0062 -3.4353 -4.7071 4.0202 -2.0156 -4.4102 5.9543 1.9735 5.1328 -5.3607 1.3902 2.7877 -5.3787 3.6693 3.4835 -4.8687 -0.9445 -1.4187 0.7041 -0.4012 -0.0296 0.4890 -0.7439 -1.8177 2.1455 0.2578 0.0577 -0.8660 -1.6782 -2.9476 2.4955 1.4317 1.0041 -0.8056 -1.2635 -3.5557 3.8193 1.8566 3.9444 -3.2552 1.1700 2.1869 -1.6611 2.1175 2.7454 -2.4152 -2.4665 -3.7821 4.6781 2.2260 3.8196 -4.7008
-3.1530 -2.0022 2.3605 -2.8523 -4.4235 2.3863 -3.9675 -3.3129 4.2212 1.0551 4.7881 -5.0403 -0.2823 2.8196 -4.6152 1.9499 2.6051 -5.5741 0.4405 -0.5909 2.6805 1.4047 -0.6137 1.5194 0.5584 -1.8626 3.4841 1.2077 0.6311 0.6921 -0.4336 -2.8843 2.9842 1.9951 0.5366 -0.5909 -1.5795 -3.0194 3.9649 1.7032 3.3210 -3.2303 1.9537 1.8512 -1.2745 1.7590 1.9811 -2.5869 -2.8671 -3.1870 3.2221 1.1079 3.3628 -4.6032
-2.8545 -2.0241 4.6579 -3.7383 -4.1864 3.9548 -2.3845 -4.0130 5.9503 0.7688 4.8427 -4.5957 2.3931 3.8956 -6.1171 3.0793 4.5234 -3.8844 -0.6337 -1.4070 0.9865 0.3609 -0.2749 1.0597 -0.2444 -2.4940 1.9574 1.0522 -0.1196 -0.2724 -1.4724 -3.2658 2.3707 1.1631 1.3432 -0.6260 -1.3147 -3.7459 3.7980 1.6341 2.5574 -4.2482 1.6347 1.4807 -2.0250 1.1657 2.4235 -2.8431 -2.5709 -3.4864 4.5670 1.9615 3.9506 -4.6905
-2.5135 -4.3437 4.9752 -4.3854 -3.2172 3.9410 -2.7979 -4.4014 2.5533 1.3815 4.9496 -4.3415 1.2064 3.5369 -6.2947 3.1418 3.3439 -4.8577 0.9389 -1.3420 2.1548 1.0733 0.0420 1.5703 0.0743 -1.2950 3.3901 1.1004 -0.0430 0.0639 -0.6932 -2.5873 3.5172 1.5253 1.2857 -0.5109 -2.1708 -2.2874 3.6557 0.9373 2.5302 -4.1064 1.2141 1.3321 -1.9600 1.2410 2.4720 -2.6514 -2.9429 -3.5620 3.7787 1.6695 3.5868 -4.8776
-3.2577 -3.5010 1.4071 -3.2440 -4.3874 3.6550 -3.4161 -1.9990 3.3239 2.0085 1.6208 -4.2197 0.4296 3.0840 -5.3244 -0.3834 1.3778 -3.8192 1.2543 -0.9231 1.2320 2.1669 0.1473 1.7786 0.6082 -1.6769 2.3682 2.6496 1.0320 0.6553 -0.7960 -2.0639 1.9768 1.8385 2.3056 0.6168 -1.2981 -3.1751 2.8745 0.8296 3.3636 -2.9507 1.8660 2.8777 -0.7516 0.8148 2.8120 -1.5698 -2.7911 -3.2499 2.8027 0.7203 2.3555 -4.0556
-3.0334 -3.4428 4.3589 -4.0397 -3.9926 2.2313 -1.6941 -4.4556 2.5886 0.1426 3.5488 -4.5067 0.1348 1.1630 -4.8988 2.2302 2.3702 -4.9543 0.6442 -0.0845 2.5223 1.8458 0.0874 1.6275 -0.2492 -1.1664 1.9692 1.8826 1.4968 1.0916 -1.2638 -1.5654 3.0111 2.5797 1.5101 -0.2464 -2.4914 -2.1375 2.3344 1.0581 1.9930 -2.8195 2.4066 2.8357 -0.8893 1.7412 3.0502 -2.0254 -2.7958 -3.4939 2.8863 0.9014 2.2835 -4.2807
-2.8933 -3.1542 5.3592 -4.1777 -4.4631 3.7930 -1.9796 -5.2249 4.4546 0.4850 3.0737 -5.2246 2.6372 3.3215 -6.3073 1.8403 5.0519 -4.8114 0.4566 -0.9417 2.1043 0.3848 0.4092 1.4201 -0.8484 -1.2344 2.8072 0.8736 0.3432 -0.0118 -0.8879 -2.6665 3.3002 1.0606 1.7453 -0.5584 -2.2369 -3.2794 2.9737 2.5791 2.8728 -3.9212 1.7470 1.7366 -1.8743 1.8808 2.8498 -2.6080 -2.7990 -4.0181 4.1475 1.8778 3.5782 -5.0428
-2.9764 -3.4377 5.2718 -4.1277 -4.4452 3.3995 -1.8676 -5.1328 3.9117 0.2587 3.0135 -5.2310 2.4275 3.2053 -6.2835 1.7538 4.8459 -4.6396 0.4675 -0.7474 2.2491 0.2266 0.2978 1.1896 -0.7993 -0.9626 3.0385 1.4740 0.4829 0.3620 -0.9476 -2.4258 3.3710 1.4477 1.8468 -0.2823 -2.3236 -2.9015 2.9567 2.3243 2.5423 -3.9607 2.0798 1.7885 -1.6219 1.7013 2.5973 -2.6124 -2.8014 -3.9686 3.8882 1.6825 3.4012 -5.0066
-3.4012 -3.1710 3.1202 -2.2275 -5.0354 4.1662 -3.4435 -3.4435 5.5218 3.1186 2.6649 -4.9003 2.8692 5.0677 -4.8956 1.0648 3.6891 -5.7272 0.6679 -1.6053 1.4804 -0.1142 -0.8703 0.4202 -0.0463 -1.4990 2.8050 0.7263 0.2471 -0.1459 -0.4827 -2.8687 3.2618 -0.0168 0.9235 -1.2705 -1.3839 -2.7369 4.4712 1.5767 3.7658 -3.3158 0.6981 2.1616 -1.6599 0.8461 2.5281 -2.9333 -2.5965 -3.5962 4.3031 2.1449 3.7785 -4.7013
-3.5579 -2.6308 2.7862 -1.6020 -3.6418 1.7409 -2.9955 -4.9350 3.2354 2.3218 2.2766 -5.4322 1.0685 4.3443 -5.4805 -0.0615 2.2826 -4.9144 -0.0244 -0.1878 2.7412 1.0368 -0.2100 1.6706 0.0708 -1.4299 3.5913 0.8620 0.9916 0.7761 -1.2873 -1.7295 4.1760 1.9308 1.0020 -0.2883 -1.5628 -3.2178 4.1558 1.5320 3.3157 -3.3382 1.7556 2.1963 -1.1495 1.7175 2.1158 -2.4792 -2.4228 -3.5805 2.9851 1.2183 3.0380 -4.7763
-2.2447 -4.3041 5.0854 -3.1936 -2.3300 4.0656 -3.4455 -4.5083 2.9953 1.0964 4.1406 -4.5904 0.3697 1.8243 -4.3573 2.2126 2.3840 -5.8199 -0.5279 -0.4458 1.2045 0.7252 0.3898 1.2799 -0.1910 -1.8939 1.4540 0.4257 1.7779 0.7664 -1.4481 -2.6545 1.7941 1.6939 2.4741 0.3341 -1.2281 -3.4448 3.0665 2.5448 2.5057 -3.4258 2.0715 2.0720 -1.0435 2.1150 2.9273 -2.0655 -2.5267 -3.6349 3.7823 1.5509 2.7204 -4.5256
-2.3606 -4.1241 1.5670 -2.9156 -3.9790 3.9385 -4.1124 -2.6387 2.3212 2.2793 2.7352 -5.0915 0.0154 3.5525 -5.3360 0.3906 1.3460 -4.4217 1.4276 -1.2867 2.2984 1.7430 0.1748 2.0975 0.4868 -1.4492 3.4670 1.1555 0.6465 0.7905 -0.4500 -2.6026 3.2082 2.0401 1.7086 0.1853 -1.8158 -2.0740 2.8232 0.9538 3.3679 -3.1129 1.2792 2.4539 -0.8461 1.7399 2.6363 -2.0840 -2.7780 -3.2078 2.6684 0.9214 2.7404 -4.4729
-1.7635 -2.9087 4.2398 -3.8187 -3.9874 3.5628 -1.7192 -4.7555 2.6468 0.5601 2.7068 -5.3653 0.2890 1.0269 -3.6459 2.5126 1.6059 -4.4617 0.4617 -0.5381 1.3927 0.8317 0.8876 1.7154 -1.0123 -0.7598 1.6174 2.1395 1.2148 1.0343 -1.3337 -2.2111 1.3587 2.1772 2.6586 0.5938 -2.6681 -2.5692 1.9769 1.2293 3.2332 -3.1015 1.4233 2.8658 -0.6680 2.0039 2.9370 -1.8665 -2.4733 -3.5468 3.0929 1.1607 2.1399 -4.1226
-1.4979 -4.4944 5.1135 -3.7709 -4.6735 4.3089 -1.9414 -4.7963 2.7325 3.4236 3.0279 -5.7725 2.2213 4.5735 -4.3515 1.0051 2.9603 -5.7186 -0.1002 -0.2597 2.2059 0.1083 0.1590 0.7720 -1.2899 -1.1816 2.2850 0.6300 1.5739 0.7230 -1.1693 -2.0719 3.4956 0.2132 2.2255 -0.5735 -2.5240 -2.6614 3.8220 2.3308 2.1752 -3.7870 1.3581 2.2544 -1.5169 1.1886 2.1500 -2.8345 -2.4140 -4.1431 3.9887 2.2286 3.1822 -4.8924
-3.2292 -2.0908 3.0631 -3.3953 -3.7219 1.2894 -2.4597 -4.3763 3.4180 1.5061 0.8877 -4.0517 0.7425 2.6016 -5.5775 -0.7507 1.7890 -3.8586 1.2796 -0.7226 2.3190 1.3776 0.7648 2.0892 -0.0162 -1.0296 3.0274 2.0627 1.0387 0.7742 -0.2731 -2.5170 3.0261 1.9249 2.5045 0.4383 -1.2119 -2.8824 1.8954 1.1981 3.2050 -3.2786 2.0812 2.7122 -1.0215 1.0456 2.9786 -1.8165 -2.5543 -3.2613 2.4323 0.6719 2.1197 -4.1680
-3.9867 -3.5022 2.3648 -2.2196 -2.4535 1.0915 -1.7743 -4.4718 2.3868 2.0315 2.5968 -5.0962 -0.3508 3.0161 -5.1272 0.4802 0.9523 -4.1821 1.0684 -0.7594 2.7533 1.4127 0.5832 2.1594 -0.3438 -0.7411 3.2840 1.9115 0.3980 0.7468 -0.7362 -2.1392 3.6945 2.4202 1.7101 0.2006 -2.2308 -2.3315 3.5483 0.8211 3.1048 -3.0118 1.4585 2.2502 -0.7906 1.8070 2.5613 -2.0396 -2.5293 -3.1844 2.3551 0.7603 2.4102 -4.3376
-2.3973 -4.5451 3.3938 -4.0064 -2.7743 3.0561 -2.2914 -3.1490 1.3965 2.2155 3.8420 -5.3802 0.1920 3.7371 -4.0616 0.8463 1.8492 -5.4597 0.8505 -0.4276 3.0309 0.1883 0.6282 2.1782 0.4864 -1.7972 2.5100 1.1868 1.2111 1.2082 -0.2709 -2.5867 3.5511 0.8072 0.8300 -0.2018 -1.7282 -2.1711 3.5859 2.1674 2.3823 -3.4485 1.5525 1.6753 -1.1643 1.4345 1.5203 -2.4833 -2.5794 -3.1635 2.8604 1.3462 2.9391 -4.5715
-1.1329 -3.0444 5.5621 -3.0407 -2.5393 4.1280 -2.6820 -4.7915 4.9330 3.4377 2.6727 -3.2239 3.2444 4.3982 -4.9072 2.2548 2.2313 -5.3110 0.0377 -1.3137 0.7507 -0.9256 -0.2444 0.2975 -0.7274 -2.5059 1.2682 -0.1633 1.0084 -0.0587 -0.4543 -2.6856 2.7408 -0.8742 1.7355 -1.1755 -1.1860 -3.9082 3.2513 1.2733 3.7746 -3.6434 0.0194 2.7647 -1.7605 0.3788 2.7475 -3.0457 -1.9965 -3.5541 4.4567 2.5369 3.2543 -4.2624
-2.6293 -4.5861 2.4417 -1.7959 -3.4573 4.4375 -3.9343 -2.8454 3.4930 1.7925 0.9477 -3.6290 1.4053 2.5444 -5.4020 -0.4268 1.9001 -3.9626 1.1112 -0.9444 1.1100 0.6813 0.4989 1.0286 -0.0476 -1.8390 0.7456 1.8929 1.3950 1.1165 -0.5004 -2.6133 1.9586 1.5269 2.8010 0.7031 -1.9244 -2.2282 2.3004 1.4041 3.3280 -3.1099 1.9272 3.0324 -0.7071 1.0262 3.1667 -1.6811 -2.5475 -3.2808 3.1603 1.0387 2.1804 -4.0035
-3.9047 -3.0270 4.4739 -2.3035 -4.4947 3.3636 -2.3175 -4.3043 5.7740 1.3405 5.0657 -5.2854 2.7951 3.1332 -5.2843 2.9906 4.8218 -3.5359 -0.6313 -1.1961 1.0377 0.6470 -1.3943 0.2623 -0.3797 -1.4446 2.5036 0.4813 -0.8491 -1.1345 -1.6985 -1.6074 3.2164 1.4799 0.2571 -1.3692 -1.5056 -2.4403 4.4656 1.0038 3.3526 -3.6058 0.9387 1.2164 -2.3615 1.5333 2.3835 -2.6098 -2.5072 -3.5506 4.5012 2.0379 4.0781 -4.4119
-3.7755 -2.8498 4.7110 -2.4958 -4.4188 3.3500 -2.2616 -4.4174 5.7561 1.5020 5.1584 -5.2370 2.7590 3.0941 -5.3246 3.2125 4.7375 -3.5800 -0.7291 -1.2324 1.0422 0.4055 -1.4734 0.0784 -0.3261 -1.6748 2.4262 0.1471 -0.7202 -1.2030 -1.5274 -1.6235 3.3369 1.2765 0.2458 -1.4626 -1.3304 -2.5753 4.4972 1.0927 3.4764 -3.5447 0.8064 1.3309 -2.3563 1.5625 2.3906 -2.6439 -2.4648 -3.5479 4.5614 2.1466 4.0999 -4.4074
-4.3603 -3.6755 2.8088 -2.2028 -4.6380 3.3170 -3.0294 -2.7278 4.5893 -0.5190 2.6615 -3.3201 0.3565 2.6166 -5.5746 1.0398 4.3821 -4.0678 0.8813 -0.4664 2.3024 1.3916 0.6676 1.4493 -0.4727 -0.9088 1.8065 2.5568 0.1900 0.6170 -0.9536 -2.0757 2.6314 3.1171 1.3362 -0.1890 -2.3697 -2.4295 2.2309 1.8448 2.0759 -3.7438 2.7205 1.1921 -1.6108 2.2788 2.2243 -2.3295 -2.9677 -3.3590 3.2384 0.6882 2.9344 -4.1554
-1.7449 -5.2626 3.5434 -3.1896 -4.4591 5.3063 -3.6994 -3.9025 3.0096 1.3514 1.8099 -5.0038 2.6589 3.5924 -5.9840 0.5389 4.1085 -4.9413 0.2048 -0.6556 1.8987 -0.1288 0.4178 0.8931 -1.0229 -1.0079 2.7020 1.0261 0.5927 -0.0627 -1.1199 -2.5070 2.8341 1.3828 2.0554 -0.1641 -1.7748 -2.8701 4.1502 2.4913 3.4635 -3.5717 2.1400 2.3091 -1.4133 1.7260 3.1892 -2.3265 -2.5898 -4.1140 3.9848 1.7499 3.2403 -4.8546
-0.7809 -4.0142 3.8971 -3.0043 -3.6558 4.8357 -2.6623 -5.3093 3.1062 0.9675 2.6061 -5.9504 3.0954 2.7526 -4.8057 1.3461 4.3921 -4.3682 -0.2105 -0.3597 2.0089 0.1429 0.7970 1.1088 -1.6382 -0.7855 1.7734 1.6461 0.8877 0.9829 -2.1242 -1.5810 2.9599 2.0434 2.0615 0.1187 -2.5351 -2.9682 2.5132 1.0827 2.0402 -3.6040 1.9469 1.6900 -1.3152 1.3000 2.4550 -2.1944 -2.2406 -3.9630 3.5908 1.6251 2.9544 -4.6576
-1.8180 -4.0646 3.6570 -3.8286 -2.7259 3.5840 -3.1612 -3.9714 1.6219 0.1540 2.3417 -5.1362 0.1955 0.7396 -3.3242 2.2758 1.4837 -4.3565 1.1055 -0.7087 1.9144 1.9342 0.3546 1.2381 0.0192 -1.1907 0.9828 1.3751 1.7224 1.5533 -0.6586 -2.4032 1.5711 2.0630 2.7697 0.7107 -1.8978 -1.9814 2.3333 0.9658 3.0546 -2.9680 1.2682 3.0487 -0.5112 1.7543 2.8149 -1.7306 -2.6556 -3.1878 2.7867 0.9092 1.9038 -3.9268
-2.0969 -2.4107 1.3158 -3.3076 -3.9542 2.7289 -3.5887 -1.5754 3.0567 0.4199 3.8080 -2.4053 -0.1508 3.9693 -4.7488 2.1742 3.8229 -4.0980 1.3283 -0.4920 2.6836 1.7793 -1.0083 1.3391 0.7354 -1.6201 3.4910 1.6457 0.0867 0.3103 -0.7381 -1.3730 3.7034 1.8439 -0.4821 -1.0741 -1.4804 -2.6925 3.6881 0.6921 1.8609 -3.9055 1.0124 0.2740 -2.0414 1.5394 1.0746 -2.9689 -2.6038 -2.6392 2.7011 0.7956 3.3510 -3.7760
-2.8803 -4.0723 1.5416 -3.4089 -1.9362 2.5397 -2.0040 -2.0488 0.5481 1.5769 1.0611 -4.1076 1.0838 3.1776 -5.1681 -0.7310 1.8176 -4.3281 1.4633 -0.1905 3.3022 2.4097 -0.0038 2.1388 0.8926 -1.5879 3.3205 1.6743 0.0520 0.8186 -0.5987 -1.5141 3.1026 0.8692 1.3238 0.6967 -1.1273 -2.8726 2.6969 0.7925 2.9840 -2.7745 1.2481 2.0547 -0.5354 0.4084 2.2190 -1.5585 -2.3432 -2.7133 1.8406 0.6746 2.2495 -4.0742
-2.6507 -3.7698 3.3120 -3.7873 -3.4340 1.2057 -1.4007 -3.8169 1.2170 -0.0571 2.1023 -5.0022 -0.7786 1.5393 -2.7622 0.9234 0.1990 -3.8811 0.8337 0.1852 2.7837 2.0365 0.5937 1.9710 -0.0888 -0.6573 1.9387 1.8935 2.0313 1.5334 -1.0878 -1.3591 2.8243 2.8731 2.3204 0.4226 -2.3344 -1.6840 2.0286 1.4508 2.5072 -3.1520 2.1514 2.7703 -0.7927 2.1502 2.0569 -1.9195 -2.5244 -3.1661 1.9528 0.3973 1.5815 -3.6801
-1.3989 -3.8856 2.3276 -3.4750 -2.9537 3.2085 -3.2439 -3.3984 0.8436 -0.3731 3.4088 -3.2639 -0.4208 1.8081 -5.0737 1.6686 2.8787 -4.4865 1.0970 -0.3080 3.0253 2.0779 0.6717 2.4304 -0.3066 0.0498 2.6011 2.6478 0.1147 1.1483 -1.2554 -1.0462 3.0156 2.8635 1.2357 0.1608 -2.0092 -1.5536 1.8044 0.6809 1.1792 -3.0107 2.2863 0.8640 -1.1538 1.2823 1.5485 -1.7022 -2.5191 -2.9356 2.0626 0.3978 2.3219 -3.9376
-2.3488 -2.0535 3.2605 -3.7306 -3.3858 1.7939 -1.6235 -4.2794 2.5739 1.0718 0.0107 -2.6475 0.4932 1.0444 -4.7546 -1.0861 1.1107 -2.9242 1.3218 -0.1627 1.3868 1.3140 1.2190 1.9940 -0.0851 -0.5687 1.0248 2.5092 1.9978 1.4962 -0.2489 -2.0565 1.2167 2.0498 3.2348 0.7591 -1.6788 -2.4538 0.9178 0.9720 2.4702 -2.8577 2.0710 2.9923 -0.7053 0.9572 2.7503 -1.3975 -2.3217 -3.0353 2.1368 0.3634 1.1656 -3.2738
-2.5583 -4.2123 1.7762 -4.0252 -2.4481 2.5367 -2.4304 -1.9888 0.7796 -0.4254 0.9778 -4.1125 0.9367 2.4601 -5.4542 -0.4555 3.3817 -3.7067 1.6189 -1.0418 2.2795 1.6991 0.4539 2.4574 0.6781 -1.6222 3.3060 2.5228 1.0548 1.3459 -0.2609 -2.5977 2.6407 1.7487 2.1727 0.6916 -1.6777 -2.3313 3.1036 1.5632 2.0635 -3.1505 2.0945 2.2527 -0.7477 1.2187 1.9536 -1.7082 -2.6490 -2.7476 2.0457 0.4017 2.2191 -4.0832
-1.7641 -3.3053 1.0895 -3.1776 -3.4587 3.0728 -3.7564 -1.9491 1.2756 -0.8422 2.7989 -3.0982 -0.1044 2.4985 -5.3816 1.0811 4.0380 -3.9423 1.6542 -1.2679 3.0428 2.2397 -0.0943 2.2981 0.3385 -0.8706 3.6657 2.1461 -0.3365 0.8119 -0.6763 -1.9648 3.4473 2.2318 0.9798 0.0810 -1.8563 -1.4161 2.6733 1.2538 1.5972 -3.5896 1.6176 0.8452 -1.2611 1.8754 1.7093 -2.2431 -2.6188 -2.5364 2.0411 0.3580 2.7327 -3.9831
-1.6453 -2.8239 0.4449 -2.0916 -4.1621 2.4361 -3.8736 -2.9178 1.3788 0.1731 1.7055 -5.2943 0.5671 3.5749 -3.8126 -1.1809 1.9519 -3.3045 1.2443 -0.1944 3.3337 1.9006 0.9470 2.5982 -0.2324 -0.2247 3.0248 2.4623 0.4589 1.2850 -0.7042 -1.6561 2.9790 2.7110 1.6395 0.3788 -2.1624 -1.6987 2.5758 1.1824 1.2782 -3.1348 2.4853 1.2563 -1.0354 1.3950 1.6303 -1.7063 -2.4211 -2.8959 1.7178 0.1905 2.1312 -3.8650
-0.9307 -3.6612 1.4465 -2.8504 -4.3661 2.7355 -3.1757 -2.9621 0.7950 0.1170 2.3437 -4.9522 -0.3600 2.8651 -2.6391 -0.4083 0.5539 -3.4142 0.1475 0.8747 2.0962 1.6495 0.8455 2.2349 -0.4552 -0.2661 2.8766 2.2599 1.9303 1.3820 -1.5914 -0.8722 2.0911 3.1214 1.3101 0.3084 -2.1616 -2.0509 2.8511 1.7493 1.7545 -3.2633 2.7715 1.8830 -1.0141 2.1058 1.1862 -1.9361 -2.2710 -3.2389 1.9491 0.2824 1.8704 -3.5474
-3.6689 -2.6051 2.5551 -2.5386 -3.1271 0.4568 -2.2427 -4.5495 2.3881 0.1318 1.3729 -4.3388 -1.4276 1.6383 -2.5083 0.3180 -0.0262 -2.3504 0.8467 0.1047 1.4012 1.5893 1.3919 1.6595 -0.1827 -0.1149 2.4825 2.8597 1.4168 0.8454 -1.3349 -0.9194 1.9337 2.8951 2.6655 -0.0025 -1.2233 -2.3568 2.3977 0.8568 2.3825 -2.2117 3.2209 2.3201 -1.4090 2.3236 2.2015 -2.3899 -2.4157 -3.1361 1.9440 -0.0072 1.3409 -2.8535
-3.5343 -1.9907 1.0908 -2.8483 -4.2527 1.5961 -2.7044 -2.5582 3.3139 -0.1164 0.0881 -2.1709 0.0538 1.3309 -4.2624 -1.7090 1.8341 -2.6872 1.5014 -0.2765 1.2499 2.2688 0.8048 1.9718 0.5773 -0.9762 2.2143 3.2476 1.4624 1.0295 -0.8026 -1.0858 1.6140 2.5484 2.5082 0.1932 -1.1494 -2.5444 1.4002 0.5609 2.4551 -2.1157 2.9019 2.3086 -1.2339 2.0327 2.2793 -2.2453 -2.5491 -2.8138 1.8518 -0.2792 1.4266 -2.8102
-1.9190 -4.0433 1.0798 -3.8781 -2.7669 1.6955 -2.2565 -1.7975 0.1885 1.0711 0.7958 -4.1570 -1.2093 1.5902 -4.0014 -0.3004 0.2293 -2.2223 1.6692 -0.4520 2.6355 2.3276 0.3091 1.5106 0.1813 -0.5458 2.4012 2.2579 1.7959 1.7749 -0.2414 -1.9915 2.3231 2.7290 2.5678 0.5649 -1.7303 -2.0948 2.5795 0.4683 2.5591 -2.5462 1.5941 2.8074 -0.3608 1.6340 2.4153 -1.6347 -2.4218 -2.6722 1.3862 0.0243 1.2942 -3.2175
-3.6663 -2.2755 1.3699 -1.7957 -3.7235 0.7720 -2.9041 -3.9809 2.9037 -0.1572 1.1640 -4.1264 -1.4722 2.0513 -2.3006 -0.0412 0.1416 -1.9139 1.1877 0.0134 1.9820 1.7119 1.3689 1.5797 -0.2943 0.0968 2.2476 2.9566 1.1986 0.7448 -1.0035 -1.0280 1.5357 3.1046 2.3739 -0.1906 -1.5162 -2.0316 2.5472 0.9255 2.3871 -2.2802 3.2736 1.8948 -1.5855 2.3146 1.9040 -2.5134 -2.4596 -2.9851 1.8861 -0.1640 1.4302 -2.6578
-2.9815 -1.1252 0.5378 -2.7881 -3.5336 0.4387 -3.2675 -2.4648 2.5554 -1.0961 2.4783 -3.1653 -1.3771 0.1741 -2.4864 0.6045 0.8173 -3.7133 1.4206 0.2110 2.2898 2.6999 -0.0849 1.5466 0.7694 -1.0828 2.7089 3.2805 1.1981 1.0048 -0.6954 -1.0542 2.3531 3.1797 1.2051 -0.5013 -1.0360 -2.2753 1.5262 0.2985 1.5152 -1.3683 2.5708 2.4768 -0.9647 1.3031 2.6137 -1.3585 -2.5085 -2.3320 1.2774 -0.3768 1.2632 -2.6812
-3.4755 -2.2474 2.1581 -2.2717 -1.7562 0.0924 -2.4764 -4.0349 0.8732 -0.9105 0.5097 -4.1165 -0.3570 2.7694 -3.4586 -1.0263 1.1296 -1.7822 0.8083 0.7580 2.6015 2.2581 1.1326 2.4162 0.6419 -0.7303 2.4232 2.3735 2.1754 1.3299 -0.8169 -1.0921 2.5434 3.2682 1.6824 0.2157 -1.0263 -2.5179 2.0787 1.1566 0.8967 -2.9149 2.4717 0.9910 -0.8288 1.9572 1.6167 -1.8886 -2.3050 -2.6189 1.3098 -0.2699 1.3360 -3.0525
-1.8745 -3.2083 -0.0229 -3.5911 -2.7636 1.6201 -2.7481 -0.9488 0.2680 -0.4226 -0.3971 -2.3992 -1.2207 1.2969 -3.9271 -1.3721 1.6809 -1.5441 2.1820 -0.5755 1.9049 2.7133 0.7102 2.4932 0.8424 -0.9196 2.5076 2.1990 1.9046 1.7240 -0.0865 -1.3933 1.4176 3.0074 2.1133 0.4649 -1.3509 -1.9518 2.0343 0.8093 1.7341 -2.6801 2.1000 2.3979 -0.6739 1.7174 1.4545 -1.5362 -2.3687 -2.2093 0.9695 -0.5356 1.0749 -2.6208

>  <OB_ATOM_TYPES> (1aclA1)
C.3 C.3 C.3 C.3 C.3 C.3 C.3 C.3 C.3 C.3 C.3 C.3 C.3 C.3 C.2 C.2 N.4 N.4

>  <ENSEMBLE_RMSD> (1aclA1)
0.975 1.105 1.125 1.197 1.234 1.320 1.382 1.383 1.400 1.451 1.455 1.469 1.474 1.547 1.555 1.559 1.559 1.591 1.594 1.606 1.607 1.609 1.653 1.658 1.731 1.739 1.749 1.768 1.769 1.782 1.796 1.823 1.829 1.891 2.059 2.133 2.228 2.258 2.269 2.277 2.324 2.472 2.500 2.519 2.539 2.617 2.653 2.787 2.894 3.188

$$$$
