
 OpenBabel03071213D

 16 15  0  0  0  0  0  0  0  0999 V2000
   41.0420   28.1400   20.4400 O   0  0  0  0  0
   41.0640   32.1840   18.1300 O   0  0  0  0  0
   46.0980   30.1730   17.2950 O   0  0  0  0  0
   47.3790   28.3160   15.8980 O   0  0  0  0  0
   42.7570   29.3220   19.9010 O   0  0  0  0  0
   43.1480   31.7810   17.9920 O   0  0  0  0  0
   43.2480   30.4700   15.0320 O   0  0  0  0  0
   46.5750   30.5510   14.8660 O   0  0  0  0  0
   40.9170   29.2080   18.3390 C   0  0  0  0  0
   44.7000   28.6050   15.5040 C   0  0  0  0  0
   42.8040   29.2420   16.8690 N   0  0  0  0  0
   41.6680   30.0370   17.3020 C   0  0  0  0  0
   41.6340   28.8680   19.6480 C   0  0  0  0  0
   41.9850   31.4340   17.8360 C   0  0  0  0  0
   43.5140   29.5120   15.7690 C   0  0  0  0  0
   46.2800   29.4470   15.9250 P   0  0  0  0  0
  1 13  1  0  0  0
  2 14  1  0  0  0
  3 16  1  0  0  0
  4 16  1  0  0  0
  5 13  2  0  0  0
  6 14  2  0  0  0
  7 15  2  0  0  0
  8 16  2  0  0  0
  9 12  1  0  0  0
  9 13  1  0  0  0
 10 15  1  0  0  0
 10 16  1  0  0  0
 11 12  1  0  0  0
 11 15  1  0  0  0
 12 14  1  0  0  0
M  END
>  <MOLID> (1acmA1)
1acmA1

>  <SMILES_CANONICAL> (1acmA1)
O=C(CP(=O)(O)O)N[C@H](C(=O)O)CC(=O)O	

>  <FINGERPRINT> (1acmA1)
0000000000000100000001000000000000000000000000000101001000000000000000000001000000000000000000000000000000000000000001000010000000000000001000000000000010000000000000000000000000000000000000000000000000000000000000000000000000000000000000000000000000000000000000000000000000000000000000000000000000000000000000000000000000000000001000000000000000000000010000000000000000110000000000000000111000000000100000000000001000000000000000100000000000000000000000000000000000010000000000000000000000001000000000000000100000010000000000000000000000101000000000000000000000000000000000110100000011000000000000000001000000000000000000000000001000000001000000000000000000000000000000000001010100010000000011100000000000000011100000000000000010000000000000000000000000000000000110000000000000000000001100000000001100000000000000000000000000000000000000000000000000000100000000000000000000000001010000000000000000000000000010000000000000000010000000000000010000000000000000010010000010000000010000000000000000000000000000001000001000100001

>  <MACCS166> (1acmA1)
000000000000000000000000000010000000000000100001000011000000000000000000000000000000000011010010100001010100011100001000001100010111000101110100010100101111111010010000

>  <OB_MW> (1acmA1)
255.014

>  <OB_logP> (1acmA1)
-1.4009

>  <OB_PSA> (1acmA1)
171.04

>  <OB_MR> (1acmA1)
48.4884

>  <OB_ATOMIC_CHARGES> (1acmA1)
-0.2455737262 -0.2437336336 -0.3567885618 -0.3567885618 -0.2455737262 -0.2437336336 -0.2728308389 -0.4596021479 0.1472037521 0.1454268473 -0.1946030877 0.2089691402 0.3671973698 0.3847810507 0.2492300363 0.1264197213

>  <MCT_HBD> (1acmA1)
5

>  <MCT_HBA> (1acmA1)
9

>  <ENSEMBLE_TOTAL> (1acmA1)
50

>  <ENSEMBLE_COORDS> (1acmA1)
-2.3838 -1.6906 3.1434 -2.3618 2.3534 0.8334 2.6722 0.3424 -0.0016 3.9532 -1.5146 -1.3986 -0.6688 -0.5086 2.6044 -0.2778 1.9504 0.6954 -0.1778 0.6394 -2.2646 3.1492 0.7204 -2.4306 -2.5088 -0.6226 1.0424 1.2742 -1.2256 -1.7926 -0.6218 -0.5886 -0.4276 -1.7578 0.2064 0.0054 -1.7918 -0.9626 2.3514 -1.4408 1.6034 0.5394 0.0882 -0.3186 -1.5276 2.8542 -0.3836 -1.3716
-1.4669 -2.1221 2.2264 -0.1004 1.7446 1.0959 2.8442 0.3749 -0.0103 4.0224 -1.4373 -1.4512 -1.8753 -0.1778 3.3497 -2.1026 2.6169 0.4686 -0.3066 0.3425 -2.4424 2.9784 0.5533 -2.4654 -2.6048 -0.4386 1.0579 1.2677 -1.2492 -1.6063 -0.5385 -0.5009 -0.2852 -1.6866 0.2769 0.0926 -1.9401 -0.8575 2.3364 -1.3402 1.6642 0.5593 0.0578 -0.3777 -1.5203 2.7915 -0.4122 -1.4055
-2.6296 -0.6104 2.8060 -2.8911 2.2686 0.5918 2.9215 -1.2608 -0.0577 3.9757 -0.5759 -2.3265 -1.2788 -2.2291 1.9335 -0.7279 2.9326 0.3247 -0.5752 -1.8644 -1.1521 2.7823 1.0493 -0.9124 -0.7431 0.1006 1.6114 1.2223 -0.6680 -2.1676 -0.3547 0.4193 -0.7794 -1.3139 0.5695 0.2891 -1.5564 -1.0523 2.1080 -1.5682 2.0476 0.3896 0.0069 -0.7976 -1.3106 2.7301 -0.3290 -1.3477
-1.3575 -2.3019 2.0257 -0.0321 1.6397 1.1437 2.9961 0.9203 -2.2963 2.8240 -0.0564 0.1129 -1.6210 -0.4617 3.3479 -2.0672 2.5826 0.7767 -0.3079 0.7719 -2.3370 3.7400 -1.3671 -1.7682 -2.5594 -0.5040 1.1197 1.1354 -1.0638 -1.8376 -0.6249 -0.4711 -0.3951 -1.7205 0.2876 0.1418 -1.7916 -1.0461 2.2888 -1.3124 1.6222 0.7047 -0.0088 -0.1443 -1.5807 2.7078 -0.4076 -1.4469
-1.2641 -0.5030 3.1566 -0.0835 1.7831 0.8762 2.7897 1.3182 -1.1948 2.2983 -0.6647 0.4066 -0.8317 -2.3812 1.9367 -2.2735 2.3871 0.8890 -0.6587 0.6837 -2.6445 3.7569 -0.9199 -1.5607 -2.3380 -0.6972 1.0791 1.1957 -0.7358 -2.1380 -0.5647 -0.4175 -0.5979 -1.6817 0.2065 0.0569 -1.3833 -1.2989 2.0677 -1.3985 1.5677 0.6396 -0.1071 -0.0643 -1.8460 2.5441 -0.2638 -1.1262
-3.2493 -1.9245 1.7554 0.3459 1.8754 0.9664 3.2937 0.8487 -0.6757 4.2680 -0.9092 -2.3190 -3.5933 0.0437 2.8583 -1.8831 2.2763 0.8051 -0.4122 -0.3258 -2.0710 2.4955 0.6596 -3.0032 -1.3795 -0.5583 2.1110 1.6804 -1.2798 -1.4149 0.0782 -0.6191 0.1873 -1.1091 -0.0035 0.7291 -2.8525 -0.7475 2.2942 -0.9438 1.4916 0.8233 0.3319 -0.6845 -1.1653 2.9291 -0.1433 -1.8812
-2.7279 -1.1999 2.7294 -3.6316 1.4094 0.0692 3.6633 -0.8688 -0.2308 2.7356 -1.8435 -2.4508 -0.7043 -2.0238 2.0707 -2.0490 2.9654 0.5908 0.1534 -1.2304 -1.0127 4.1254 0.1874 -2.4078 -1.1582 0.3410 1.9305 1.6728 0.5472 -1.5347 -0.2808 0.9248 -0.2613 -1.4780 0.6037 0.4757 -1.4731 -1.0885 2.2329 -2.3734 1.8053 0.3872 0.4485 -0.0445 -0.9162 3.0773 -0.4847 -1.6721
-2.0016 -1.0114 3.1824 -2.3986 2.4046 -0.4175 3.5145 1.0213 -1.3430 3.4738 -1.5698 -1.1961 -1.4461 -2.5255 1.5684 -2.0489 2.6787 1.8120 1.0006 -1.0243 0.3316 3.3515 -0.3932 -3.3565 -2.3594 -0.3823 0.9514 1.1412 -0.2696 -1.9335 -0.5820 0.4633 -0.4890 -1.2790 0.6585 0.7575 -1.8741 -1.4305 1.9013 -1.9200 2.0181 0.7894 0.5385 -0.3325 -0.5689 2.8897 -0.3053 -1.9894
-2.5239 -0.7942 2.7665 -0.6335 2.7433 0.6390 2.7559 1.3939 -0.9006 2.8456 -1.1176 -0.2525 -1.4759 -2.5583 1.7710 -2.6361 2.0387 1.4467 -0.7725 -1.5201 -1.7219 3.8268 -0.2791 -2.3519 -0.5841 -0.3303 1.5278 1.2028 -0.3529 -2.3647 -0.2983 0.5306 -0.7452 -1.1978 0.4365 0.3762 -1.5581 -1.3620 2.0053 -1.5842 1.8065 0.8645 -0.0545 -0.5357 -1.5808 2.6877 -0.0992 -1.4795
-2.8855 -1.6468 0.8510 0.1205 2.4648 0.7337 2.8608 1.2591 -0.9341 4.2442 -0.7507 -1.8136 -2.3008 -2.0310 3.0165 -2.1211 2.7214 0.4819 -0.5495 -1.0581 -1.6537 2.2946 0.1143 -3.0459 -1.7557 0.0857 2.0167 1.6972 -1.2517 -0.8674 0.0466 -0.1302 0.3960 -1.2246 0.4921 0.6615 -2.3217 -1.3038 2.0331 -1.1427 1.9952 0.6046 0.2725 -0.8163 -0.7770 2.7650 -0.1442 -1.7032
-2.6265 -0.7072 2.8028 -0.7581 2.8625 0.1112 3.0654 -1.1227 -0.0454 3.9683 -0.4333 -2.3753 -1.1972 -2.2353 1.8939 -2.8875 2.3190 0.6918 -0.5829 -1.8989 -1.0777 2.6841 1.1295 -0.9762 -0.7647 0.1268 1.6496 1.2441 -0.7677 -2.1075 -0.3275 0.3861 -0.7471 -1.3057 0.5478 0.3000 -1.5245 -1.0781 2.1085 -1.7529 1.9826 0.3784 0.0249 -0.8472 -1.2488 2.7405 -0.2639 -1.3584
-3.2987 -1.3919 2.3161 0.1563 2.2319 0.3930 2.5350 1.2216 -2.4753 2.9158 0.3683 -0.0511 -1.3274 -2.5348 2.1807 -2.0352 2.5813 0.8650 -0.8803 -0.1611 -2.1903 3.8494 -0.8086 -2.0022 -1.3417 -0.1245 2.1016 1.2586 -1.1130 -1.7167 -0.1418 -0.3353 0.0102 -1.2560 0.3129 0.6549 -1.9539 -1.4859 2.1933 -1.1072 1.8140 0.6422 -0.0444 -0.4831 -1.3543 2.6717 -0.0917 -1.5672
-3.2647 -0.5382 3.2180 0.4919 1.8008 0.8444 2.3579 1.5477 -1.7935 3.8376 -0.2605 -0.6610 -3.3190 -1.9138 1.3980 -1.6605 2.2000 1.4374 -0.6231 0.0160 -2.1548 3.5546 -0.1584 -3.1072 -1.2795 -0.7677 2.0080 1.4670 -1.0873 -1.8171 0.0273 -0.6205 -0.0102 -1.0647 -0.0172 0.7123 -2.7213 -1.1472 2.1372 -0.7957 1.4321 1.0352 0.1686 -0.5018 -1.3751 2.8237 0.0161 -1.8716
-2.6471 -0.3236 3.5628 -1.8279 2.3097 0.0300 3.3371 -0.8146 -0.1543 2.8261 -1.5503 -2.5904 -1.8405 -2.1430 2.4463 -3.3924 0.6745 0.2315 -0.2909 -0.1793 -2.2211 4.3441 0.3257 -2.0921 -0.8847 0.0496 2.0759 1.7955 0.8674 -1.7181 0.1501 0.5422 -0.0529 -1.0752 0.1045 0.5749 -1.8236 -0.9456 2.6843 -2.2221 1.0338 0.2552 0.4413 0.3335 -1.3827 3.1100 -0.2843 -1.6494
-2.7696 -0.6067 3.1114 -1.3419 2.3467 -0.7887 3.5670 0.1661 -0.6185 3.6000 -0.5699 -3.1047 -1.9059 -2.3230 1.8807 -1.4592 2.7401 1.4448 0.8422 -1.7383 0.6549 2.1134 1.2261 -2.3073 -2.3720 -0.1974 0.8404 1.3724 -1.2065 -1.6087 -0.3114 -0.0359 -0.4381 -1.0334 0.4930 0.6923 -2.3007 -1.1707 1.9735 -1.2841 1.9681 0.5107 0.6291 -1.0348 -0.3258 2.6539 -0.0570 -1.9167
-1.9008 -1.7796 2.0974 -2.1499 2.2690 -0.5315 2.8808 -1.0432 0.1080 2.3673 -1.7865 -2.3256 -0.6372 -1.0256 3.8306 -3.5634 0.6462 0.1879 -0.3781 0.2358 -2.3111 4.2181 -0.2439 -1.8026 -1.1227 0.4636 2.0083 1.8250 0.8352 -1.6203 0.0117 0.8483 -0.1000 -1.1932 0.3278 0.5021 -1.1625 -0.8458 2.7402 -2.4249 1.0729 0.0411 0.3696 0.5855 -1.4046 2.8602 -0.5598 -1.4198
-1.8219 -2.4001 2.1977 -2.9378 1.5179 -0.1493 4.5733 -0.0770 -2.1139 3.1466 -2.1009 -1.3622 -3.5797 -0.9716 2.4667 -1.4157 2.7363 1.0352 0.0652 0.4236 -1.8252 2.4318 -0.6107 -3.1948 -1.3431 -0.1060 2.2305 2.2221 0.4469 -0.7777 0.2331 0.4865 0.4912 -1.1695 0.3237 0.7916 -2.3864 -1.1740 2.3023 -1.8165 1.6677 0.5997 0.7280 0.4299 -0.7941 3.0704 -0.5923 -1.8977
-1.4857 -0.0391 3.1585 -0.1136 1.8379 0.6326 3.9224 -1.2353 -1.2019 2.8905 1.1444 -1.3033 -0.8716 -2.0358 2.2454 -2.2922 2.4655 0.4962 -0.5381 0.3289 -2.7440 2.2565 -0.4807 0.4425 -2.3992 -0.5813 1.0633 1.2784 -1.0044 -1.9567 -0.5690 -0.5142 -0.5726 -1.7064 0.1899 -0.0425 -1.4918 -0.9846 2.1892 -1.4242 1.6093 0.3828 -0.0378 -0.3097 -1.8256 2.5817 -0.3908 -0.9638
-2.1309 -2.1458 2.3179 -0.3079 2.3373 -0.0906 4.3160 -1.0376 -1.1372 3.0974 0.0308 -3.1551 -3.5103 -0.3796 2.7573 -2.4558 2.2847 0.6358 -0.5327 -0.5841 -2.1062 2.8850 0.9501 -0.8754 -1.2183 0.0003 2.1281 1.5892 -1.3381 -1.2976 0.0649 -0.2439 0.1186 -1.1932 0.2351 0.6337 -2.4198 -0.8281 2.4382 -1.4013 1.7088 0.3975 0.2519 -0.6871 -1.1709 2.9659 -0.3028 -1.5942
-1.5382 -1.9916 2.3019 -2.1471 2.5249 -0.4743 2.3678 -1.3241 0.2970 2.4393 -1.8133 -2.2501 0.4224 -0.9403 2.8170 -3.7487 1.0318 0.1199 -0.3909 0.2469 -2.3223 4.1252 -0.3891 -1.1532 -1.4170 0.3197 1.9120 1.7698 0.7454 -1.4412 -0.1671 0.8879 -0.0977 -1.4346 0.4074 0.3989 -0.7181 -0.9155 2.3783 -2.5658 1.3291 0.0077 0.2904 0.5774 -1.3586 2.7126 -0.6964 -1.1353
-0.6568 -1.8631 2.2633 -3.5944 1.5680 0.1162 3.5474 -1.3306 -0.3250 2.6404 -1.7692 -2.7174 -2.8551 -1.2805 2.4575 -1.9241 3.0657 0.5193 0.1715 -1.2254 -0.9334 4.2175 0.0609 -2.2444 -1.1941 0.3881 1.9287 1.7694 0.5021 -1.3948 -0.2328 0.9520 -0.2292 -1.4641 0.6764 0.4688 -1.6895 -0.9875 2.2390 -2.3074 1.9152 0.3703 0.4978 -0.0479 -0.8358 3.0742 -0.6241 -1.6833
-1.8997 -0.7816 3.4885 -1.7134 2.6458 -0.3659 2.2777 -2.1748 -0.9532 4.1512 -0.6527 -1.8987 -0.7995 -2.0690 1.9593 -3.3198 1.4631 0.7134 -0.7776 -0.2107 -2.4452 2.8860 -0.0370 0.1197 -0.7090 0.3439 1.8254 1.5526 0.2194 -2.1479 -0.0226 0.7123 -0.4535 -1.1627 0.4391 0.3853 -1.1251 -0.9751 2.3947 -2.1812 1.5464 0.2718 0.1246 0.1816 -1.7137 2.7186 -0.6508 -1.1797
-3.3516 -1.4709 1.5300 -2.8755 2.0599 -0.3549 4.4390 0.0011 -1.8777 2.5446 -1.6155 -2.5920 -1.3143 -2.2246 2.2271 -1.2001 3.0064 0.8662 0.3124 -1.6196 -0.3218 2.2392 0.8318 -2.6169 -1.7033 0.1399 1.9581 2.2546 -0.2372 -0.2063 0.1245 0.5814 0.4110 -1.3096 0.5923 0.5681 -2.0662 -1.3107 1.9231 -1.7449 2.0198 0.3937 0.7976 -0.5251 -0.0580 2.8535 -0.2288 -1.8499
-1.3885 -2.3311 1.7469 -0.3248 2.8752 1.0413 2.9837 1.1944 -1.6623 4.3677 -0.9908 -1.4757 -3.3991 -1.5770 0.9742 -2.5876 2.7405 0.9492 -0.3506 -1.0424 -1.3859 2.4154 -0.8195 -2.9691 -1.7911 -0.0329 1.9101 1.8244 -0.9777 -0.4011 0.0687 0.3891 0.3972 -1.3041 0.7178 0.6893 -2.3087 -1.3718 1.4841 -1.4900 2.1986 0.9069 0.3962 -0.5667 -0.5381 2.8885 -0.4054 -1.6670
-2.0211 -1.9893 2.2714 -2.0061 2.5275 -0.5457 2.7394 -2.0486 -0.6682 2.6050 -0.8742 -2.9797 -0.1079 -1.0578 3.0964 -3.7436 1.1455 -0.0797 -0.0411 0.1158 -1.9460 4.3471 -0.3037 -1.3357 -1.7523 0.3269 2.0113 1.9614 0.6058 -0.7282 -0.1714 0.8667 0.2459 -1.5194 0.4366 0.5205 -1.1800 -0.9579 2.5191 -2.5431 1.3861 -0.0530 0.4856 0.4746 -0.8989 2.9474 -0.6540 -1.4296
-3.5109 -1.1986 2.1677 0.2833 1.7023 0.5847 4.1623 -0.8071 -2.1675 2.7240 1.3503 -2.1127 -2.3273 0.1790 3.5494 -1.9287 2.0505 0.9482 -0.7485 -0.1512 -2.4961 2.9163 -0.1384 -0.1543 -1.2171 -0.9521 1.7411 1.4188 -1.0872 -2.1225 -0.0844 -0.7240 -0.3427 -1.1819 -0.1899 0.4317 -2.3865 -0.5775 2.5916 -1.0040 1.2942 0.6779 0.0751 -0.5860 -1.7002 2.8094 -0.1643 -1.5962
-3.2223 -1.9373 1.9481 -0.6993 2.2750 0.9724 4.7798 -0.3085 -1.7330 2.8518 -1.1335 -3.2529 -3.7205 0.0885 2.8732 -2.6338 1.6027 -0.0172 0.1661 -0.4942 -1.7126 2.9459 1.1864 -2.4185 -1.4469 -0.4342 2.2652 2.2861 -0.6107 -0.5991 0.2913 -0.1945 0.5884 -1.1237 -0.0677 0.8329 -2.9139 -0.7008 2.4045 -1.5738 1.3386 0.5346 0.8044 -0.4323 -0.6680 3.2086 -0.1776 -2.0179
0.2943 -1.2148 2.5824 -2.2344 2.9640 -0.1191 2.9781 -0.8268 0.4620 2.4823 -2.0696 -1.7620 -1.2975 -2.0708 1.1876 -3.7968 1.6193 0.8310 -0.2876 -0.9261 -1.5844 4.0989 -0.2168 -1.6456 -1.2846 0.2862 1.7504 1.5886 0.5478 -1.4936 -0.4532 1.0664 -0.4053 -1.6307 0.6947 0.3362 -0.7983 -1.1300 1.7854 -2.6688 1.7848 0.3828 0.1900 0.1310 -1.1863 2.8197 -0.6393 -1.1214
-1.7736 -2.3637 2.4531 0.2764 2.1940 0.9041 2.5024 0.5320 -3.0972 3.1656 0.8426 -0.6031 -3.6569 -1.2941 1.7264 -1.9285 2.6857 0.6690 -0.5190 -0.1240 -2.0083 3.9812 -1.0643 -1.9368 -1.6198 -0.0589 2.1303 1.4537 -1.2384 -1.2512 -0.0884 -0.3238 0.2702 -1.2621 0.3746 0.7279 -2.4843 -1.2767 2.0671 -1.0268 1.8615 0.7452 0.1701 -0.5041 -1.0692 2.8102 -0.2424 -1.7277
-3.7417 -0.8778 1.6215 -0.0491 1.7982 1.1724 4.5196 -0.6286 -1.8328 2.6835 0.4052 -3.3403 -3.0476 0.0102 3.6042 -2.0927 1.9246 0.1818 -0.2577 -0.6336 -2.1088 2.9961 1.1209 -0.9999 -1.4186 -0.7827 2.0243 1.8938 -1.2674 -1.2854 0.1368 -0.7105 0.1824 -1.1526 -0.2465 0.6351 -2.8026 -0.4867 2.5139 -1.1628 1.2606 0.6204 0.4730 -0.8326 -1.1457 3.0226 -0.0535 -1.8431
-2.7782 -1.3226 2.5597 -2.2966 2.7210 -0.0210 3.6491 -1.4221 -0.6710 2.4586 -1.1996 -2.9666 -0.5361 -1.7405 2.4848 -3.7765 0.9951 -0.0831 0.5588 -1.1746 -0.4611 4.2380 0.3602 -2.2716 -1.3801 0.4607 1.9713 1.9253 0.7066 -1.0408 -0.2506 0.9717 -0.1308 -1.4848 0.5377 0.4664 -1.4833 -0.9790 2.3627 -2.6379 1.4152 0.0779 0.6892 0.0437 -0.5224 3.1051 -0.3735 -1.7545
-1.6363 -1.7202 1.8812 -1.8459 3.0268 -0.3876 2.4954 -2.2921 -0.7577 3.9817 -0.4574 -1.8270 0.6006 -1.2859 1.9456 -3.3905 2.1664 1.0333 -0.6823 -1.4188 -1.3833 2.7211 -0.0476 0.2461 -0.9663 0.5275 1.6957 1.2452 -0.1211 -1.9409 -0.5478 0.7988 -0.6993 -1.5675 0.7558 0.3223 -0.5566 -0.9039 1.8567 -2.3706 2.0334 0.3684 -0.0952 -0.3441 -1.3224 2.6151 -0.7175 -1.0310
-2.8724 -0.9106 2.7305 -1.1713 2.8349 1.0216 4.0914 0.1401 -2.7706 3.5232 0.1011 -0.2428 -1.6154 -2.4919 1.6701 -3.2215 1.8560 1.0781 -0.1738 -1.2621 -1.4778 2.9221 -1.7652 -1.7388 -0.8673 -0.1982 1.7494 1.4420 0.4048 -2.0424 -0.1970 0.7879 -0.3796 -1.3136 0.5115 0.4899 -1.8009 -1.3360 2.0191 -2.0164 1.7874 0.8724 0.2754 -0.1379 -1.2837 2.9954 -0.3218 -1.6957
-3.4980 -1.0737 2.3085 -1.3388 2.6648 0.5463 2.8395 0.2710 -3.3119 4.6262 -0.6392 -1.6696 -1.7087 -2.4810 2.4208 -3.2304 1.4261 0.3216 0.1822 0.5598 -1.7639 2.5291 -1.8603 -2.1037 -1.3651 -0.0970 2.2640 2.2652 0.2995 -0.6070 0.2293 0.5519 0.5580 -1.1656 0.2918 0.8154 -2.1733 -1.3552 2.3277 -2.0254 1.4978 0.5287 0.7836 0.4659 -0.7000 3.0502 -0.5221 -1.9349
-2.6590 -0.6707 2.9680 -0.9899 2.8382 0.6425 3.9002 -0.8877 -2.6795 3.6076 0.9085 -0.8375 -1.6863 -2.3978 1.8400 -3.0202 1.9627 1.1595 -0.4463 -1.3644 -1.6932 2.7648 -1.3886 -0.5505 -0.7718 -0.1691 1.6702 1.3610 0.1001 -2.2344 -0.2110 0.6487 -0.5543 -1.2832 0.4747 0.3981 -1.7385 -1.2139 2.1352 -1.8726 1.8170 0.7562 0.1400 -0.3101 -1.4762 2.9052 -0.3476 -1.5441
-1.7974 -2.0568 1.9424 -1.6475 2.8972 -0.1664 3.6975 -1.4258 -1.8370 3.1137 -0.0773 0.3029 0.4297 -1.6342 2.1863 -3.3960 1.7979 0.7602 -0.7583 0.3301 -2.4534 1.6747 -1.9129 -0.5141 -1.1108 0.1886 1.8390 1.5638 0.3209 -1.9308 -0.0815 0.7997 -0.2794 -1.3446 0.5785 0.3899 -0.7115 -1.2485 1.9790 -2.2382 1.7999 0.3600 0.1148 0.4558 -1.6008 2.4916 -0.8130 -0.9777
-2.3839 -1.1761 3.4879 -1.8339 2.8806 0.1048 3.3781 -1.9205 -1.4449 2.5831 -0.2536 -3.2662 -1.7115 -2.0873 1.5112 -3.6392 1.5094 0.1286 0.4284 -1.3178 -0.6798 4.4652 0.2595 -1.7667 -1.4052 0.2811 1.9482 2.1039 0.3958 -0.6198 -0.1442 0.8467 -0.0594 -1.4572 0.5484 0.4597 -1.8389 -1.1219 2.2479 -2.4270 1.6703 0.2005 0.7196 -0.1451 -0.4745 3.1628 -0.3694 -1.7775
-1.1420 -1.8214 3.1570 -1.4532 2.9561 0.4286 2.5260 -0.4935 -2.9955 4.4025 -0.9234 -1.2623 -1.8571 -2.3510 1.0576 -3.3817 1.8804 -0.0815 0.2428 0.9468 -1.7645 2.2336 -2.0877 -1.1358 -1.9211 -0.0507 1.8461 2.1478 0.4441 -0.4148 -0.0167 0.7096 0.5285 -1.4520 0.5532 0.5402 -1.6362 -1.5242 1.9289 -2.2070 1.8423 0.2645 0.6978 0.7216 -0.6480 2.8165 -0.8022 -1.4492
-0.0110 -1.6669 2.4196 -1.7465 2.9024 0.1150 4.1163 -0.6811 -1.9268 2.9436 -1.4800 0.2435 -1.9598 -2.3610 1.4580 -3.5924 1.6085 0.3755 -0.1272 0.8132 -2.1292 1.8650 -1.6783 -1.9688 -1.5586 -0.0092 1.8519 1.9767 0.7846 -1.0021 -0.0629 0.9318 0.1884 -1.4289 0.5478 0.4505 -1.2286 -1.4692 1.8594 -2.3736 1.7194 0.3193 0.4875 0.8339 -1.0690 2.7004 -0.7960 -1.1852
-2.4231 -2.1935 1.1982 0.2502 2.4151 1.3041 2.0622 0.2673 -3.3158 2.9732 1.1496 -1.0491 -3.5625 -0.5837 2.3494 -2.0132 2.5743 1.1941 -0.6273 -1.5104 -1.3723 4.0192 -0.7454 -2.2181 -1.1932 -0.3630 1.9787 1.7320 -1.3334 -1.0781 0.2415 0.0921 0.0757 -0.9856 0.4570 0.7256 -2.5259 -1.0296 1.8823 -0.9873 1.9164 1.0798 0.3140 -0.9421 -0.8296 2.7257 -0.1705 -1.9248
-3.1561 -1.6070 1.4020 -0.7745 2.9048 0.7881 2.1117 -1.1968 -2.9559 2.4928 1.2879 -2.3093 -1.2651 -2.0953 2.5817 -2.7626 2.3300 -0.1516 0.0908 -1.6658 -0.5591 4.2128 -0.4334 -1.9206 -1.7541 0.1855 1.9808 2.1737 -0.5397 -0.2617 0.1381 0.4287 0.4530 -1.2883 0.5821 0.5969 -2.0007 -1.2890 2.0320 -1.6924 2.0102 0.3499 0.6913 -0.6762 -0.1550 2.7828 -0.2261 -1.8714
-1.8151 -0.9838 2.9859 -2.8648 2.5058 1.2790 3.5268 -0.5778 -3.0857 3.8060 -1.0041 -0.5457 -0.6161 -2.2795 1.5400 -2.9313 1.9437 -0.9289 1.3971 0.4077 0.9775 1.9175 -1.9500 -1.8211 -2.0854 -0.5679 0.6927 1.7437 0.6476 -1.3755 -0.4146 0.8070 -0.4259 -1.4283 0.7923 0.6007 -1.4100 -1.3756 1.7549 -2.4709 1.7939 0.1930 0.9162 0.5994 -0.1337 2.7291 -0.7587 -1.7072
-1.7469 -2.3583 1.9417 -0.7298 2.8790 1.6655 2.2777 0.6843 -2.7945 4.4567 -0.3219 -1.8128 -3.2022 -1.4649 0.4279 -2.5968 2.7397 0.3763 0.1279 -1.4186 -0.5703 2.5312 -1.7384 -2.4058 -1.8553 -0.0272 1.8341 2.2068 -0.3010 -0.2120 0.1703 0.5863 0.6081 -1.2578 0.7664 0.6930 -2.3644 -1.3325 1.3069 -1.6038 2.2196 0.8685 0.7264 -0.4583 -0.0982 2.8600 -0.4541 -1.8285
-3.4200 -0.3461 3.3282 0.0347 1.7632 1.6606 2.5428 -0.2786 -3.6539 3.1807 1.4576 -1.8330 -3.8525 -1.2404 1.2740 -2.0717 2.0634 0.8595 0.0045 -0.0765 -1.8664 4.4339 -0.6441 -2.1202 -1.5710 -0.9115 2.0179 2.0679 -0.9414 -1.0091 0.2012 -0.5832 0.3926 -1.1129 -0.1449 0.7969 -3.0643 -0.8642 2.1276 -1.1151 1.3344 1.0882 0.6508 -0.4784 -0.9057 3.0909 -0.1092 -2.1572
0.3397 -1.6252 2.1755 -1.5341 2.9532 -0.0441 3.6935 -1.4684 -1.8022 3.1040 -0.2313 0.3955 -1.8420 -2.1296 1.7354 -3.3521 1.8568 0.7536 -0.6847 0.4524 -2.4663 1.6288 -1.9662 -0.5570 -1.1050 0.1719 1.8115 1.6193 0.3414 -1.8605 -0.0610 0.8522 -0.2667 -1.3270 0.6012 0.3772 -0.9457 -1.3136 1.8828 -2.1827 1.8459 0.3895 0.1644 0.5250 -1.5842 2.4844 -0.8657 -0.9400
-1.7350 -2.2992 1.5956 -0.7982 2.8944 0.4154 4.3361 0.1464 -2.1733 2.4987 -1.6495 -2.5420 -3.6843 -1.1266 1.7368 -2.9173 2.1059 0.2294 0.6191 -1.7073 0.0528 1.9860 0.7629 -2.6027 -1.5689 0.0115 1.9593 2.4398 -0.1895 -0.1894 0.3101 0.5507 0.5264 -1.1307 0.5320 0.6065 -2.4636 -1.1693 1.7529 -1.7207 1.9040 0.3953 1.0317 -0.5569 0.1410 2.7971 -0.2094 -1.9042
-3.4445 -0.1409 3.1915 0.1138 1.7613 1.5706 2.4370 -0.2843 -3.6347 3.0802 1.5075 -1.8643 -3.8394 -1.4220 1.3458 -2.0445 2.0504 0.9247 0.0091 -0.1860 -1.8341 4.4164 -0.5413 -2.1890 -1.5715 -0.9131 2.0288 2.1160 -0.9189 -0.9595 0.2296 -0.6135 0.4365 -1.0882 -0.1578 0.8109 -3.0672 -0.8718 2.1151 -1.0737 1.3239 1.0910 0.6765 -0.5272 -0.8636 3.0506 -0.0661 -2.1697
-2.7814 -2.0198 1.3595 -0.4026 2.5824 0.8077 4.2695 -0.3313 -2.4761 1.7731 -0.5772 -3.1362 -3.6417 -0.1996 2.4342 -2.5694 2.0720 0.3608 0.4711 -2.1064 -0.2120 2.6042 1.3946 -1.9093 -1.2852 -0.3134 1.9511 2.4502 -0.7967 -0.4554 0.4247 0.1634 0.2939 -0.9818 0.2729 0.5883 -2.6953 -0.8098 1.9601 -1.4137 1.7176 0.5568 1.0108 -1.0095 -0.1230 2.7675 -0.0392 -2.0002
-3.6446 -0.3171 2.0482 -0.4042 2.5330 0.2224 4.1382 -0.1397 -2.5833 1.5904 -0.2082 -3.0781 -2.5595 -2.3111 1.8234 -2.5839 2.0402 0.5911 0.4957 -2.1349 -0.2033 2.5995 1.5545 -1.6758 -1.3070 -0.2561 2.0022 2.4457 -0.7944 -0.5041 0.4491 0.1120 0.3908 -0.9727 0.2356 0.6087 -2.5419 -1.0958 1.9413 -1.4191 1.6763 0.4842 1.0269 -1.0344 -0.1053 2.6875 0.1402 -1.9625
-1.8489 -2.0619 1.8106 -1.4854 2.7867 0.2121 3.0857 -1.9281 -2.0613 1.9333 0.0466 -3.2905 -3.1951 -0.7494 3.0993 -3.3121 1.4631 -0.0603 0.9315 -1.4829 0.1886 4.2272 0.2266 -2.4086 -1.2537 0.2060 2.0392 2.3535 0.2839 -0.5650 0.1236 0.6968 0.0878 -1.2206 0.4351 0.5435 -2.2198 -0.8881 2.3753 -2.1201 1.5902 0.1902 1.0696 -0.2918 -0.0657 2.9312 -0.3330 -2.0952

>  <OB_ATOM_TYPES> (1acmA1)
O.co2 O.co2 O.3 O.3 O.co2 O.co2 O.2 O.2 C.3 C.3 N.am C.3 C.2 C.2 C.2 P.3

>  <ENSEMBLE_RMSD> (1acmA1)
0.000 0.929 1.324 1.383 1.390 1.433 1.449 1.472 1.479 1.485 1.516 1.552 1.555 1.562 1.575 1.594 1.596 1.601 1.606 1.615 1.617 1.646 1.667 1.692 1.694 1.710 1.722 1.743 1.747 1.748 1.752 1.767 1.798 1.805 1.828 1.840 1.856 1.861 1.894 1.936 1.962 1.970 1.971 1.976 1.977 1.993 2.001 2.037 2.071 2.073

$$$$
