
 OpenBabel03071213D

 10 11  0  0  0  0  0  0  0  0999 V2000
   59.2080   94.0730    7.2250 N   0  0  0  0  0
   61.9130   91.8430    4.3000 N   0  0  0  0  0
   61.2030   92.8510    3.7000 C   0  0  0  0  0
   61.5280   91.4510    7.7470 C   0  0  0  0  0
   60.5710   92.3410    7.9960 N   0  0  0  0  0
   60.4520   93.5220    4.5250 N   0  0  0  0  0
   62.0180   91.0760    6.5760 N   0  0  0  0  0
   60.1250   93.1370    7.0040 C   0  0  0  0  0
   61.5640   91.8950    5.6170 C   0  0  0  0  0
   60.6860   92.9360    5.7480 C   0  0  0  0  0
  1  8  1  0  0  0
  2  3  1  0  0  0
  2  9  1  0  0  0
  3  6  2  0  0  0
  4  5  1  0  0  0
  4  7  2  0  0  0
  5  8  2  0  0  0
  6 10  1  0  0  0
  7  9  1  0  0  0
  8 10  1  0  0  0
  9 10  2  0  0  0
M  END
>  <MOLID> (1ahaA1)
1ahaA1

>  <SMILES_CANONICAL> (1ahaA1)
Nc1ncnc2c1nc[nH]2	

>  <FINGERPRINT> (1ahaA1)
0000000000000000000000000000101000000000100000000001100000000000000000000000100000000000000000000000100000001000000001100010000000000000000000000000000001000000000000000000000011000000000000000000000000000000100000000000000000000000000000000000100000000000000000000100000000000001000000000000000000000000000000000000000000000000000000001000000000000100000000000000000000010000000000000000000000000000000000000000000000000000000000000000000000000000000000000000000000000000000000000001000000001100000000000000010000000000000000000000000000000000000000000000000000000000000000000000000001000000000000000000000010000000001000000000000000000000000000000000000000000000000000000000000000000000000000000100000000100001100000000000000001000000000000000000000000000000000001000000000000000000000000000000000000000000000000000000000000000000000000000000000000000000000000000000000000000000000000000000000000000000000000000000000000001000000000000100011000000000000000001100000000000000000000000000000000000000000000000000000011000000

>  <MACCS166> (1ahaA1)
000000000000000000001000010000000000010000001000000010000000000010000000000111110011000000000001011000001000000000000011100010000010101010000100000000100001010010101000

>  <OB_MW> (1ahaA1)
135.054

>  <OB_logP> (1ahaA1)
0.5163

>  <OB_PSA> (1ahaA1)
80.48

>  <OB_MR> (1ahaA1)
36.0881

>  <OB_ATOMIC_CHARGES> (1ahaA1)
-0.1054213149 -0.2031663863 0.2004701766 0.2016287447 -0.2040299538 -0.2178684327 -0.2031341413 0.1919345767 0.1861821982 0.1534045328

>  <MCT_HBD> (1ahaA1)
2

>  <MCT_HBA> (1ahaA1)
5

>  <ENSEMBLE_TOTAL> (1ahaA1)
1

>  <ENSEMBLE_COORDS> (1ahaA1)
-1.7188 1.5605 1.1812 0.9862 -0.6695 -1.7438 0.2762 0.3385 -2.3438 0.6012 -1.0615 1.7032 -0.3558 -0.1715 1.9522 -0.4748 1.0095 -1.5188 1.0912 -1.4365 0.5322 -0.8018 0.6245 0.9602 0.6372 -0.6175 -0.4268 -0.2408 0.4235 -0.2958

>  <OB_ATOM_TYPES> (1ahaA1)
N.pl3 N.ar C.ar C.ar N.ar N.ar N.ar C.ar C.ar C.ar

>  <ENSEMBLE_RMSD> (1ahaA1)
0.000

$$$$
