
 OpenBabel03071213D

 20 22  0  0  0  0  0  0  0  0999 V2000
    5.1780   34.5010   18.9920 N   0  0  0  0  0
    9.3410   33.2540   17.6700 N   0  0  0  0  0
   13.7270   38.6550   16.8930 C   0  0  0  0  0
   12.8510   37.8060   21.9370 C   0  0  0  0  0
   14.0470   38.9320   18.3620 C   0  0  0  0  0
   13.7240   38.1470   20.7600 C   0  0  0  0  0
   12.7280   36.2370   18.4630 C   0  0  0  0  0
   11.7550   35.3040   18.1860 C   0  0  0  0  0
    8.6590   37.7520   19.6920 C   0  0  0  0  0
   10.0300   38.0590   19.6370 C   0  0  0  0  0
    7.3340   33.9990   18.3560 N   0  0  0  0  0
    6.8410   36.1270   19.2980 N   0  0  0  0  0
   13.0160   38.4510   19.4000 C   0  0  0  0  0
   12.2190   37.2540   18.9990 N   0  0  0  0  0
    6.4500   34.8670   18.8500 C   0  0  0  0  0
    8.5770   34.2950   18.1900 C   0  0  0  0  0
    8.2640   36.4930   19.2080 C   0  0  0  0  0
   10.9620   37.1550   19.1100 C   0  0  0  0  0
   10.5260   35.9180   18.6370 C   0  0  0  0  0
    9.1470   35.5420   18.6700 C   0  0  0  0  0
  1 15  1  0  0  0
  2 16  1  0  0  0
  3  5  2  0  0  0
  4  6  2  0  0  0
  5 13  1  0  0  0
  6 13  1  0  0  0
  7  8  2  0  0  0
  7 14  1  0  0  0
  8 19  1  0  0  0
  9 10  2  0  0  0
  9 17  1  0  0  0
 10 18  1  0  0  0
 11 15  1  0  0  0
 11 16  2  0  0  0
 12 15  2  0  0  0
 12 17  1  0  0  0
 13 14  1  0  0  0
 14 18  1  0  0  0
 16 20  1  0  0  0
 17 20  2  0  0  0
 18 19  2  0  0  0
 19 20  1  0  0  0
M  END
>  <MOLID> (1aoeB1)
1aoeB1

>  <SMILES_CANONICAL> (1aoeB1)
C=CC(n1ccc2c1ccc1c2c(N)nc(n1)N)C=C	

>  <FINGERPRINT> (1aoeB1)
0000000000000000000000000000001000000000100000000000000000000000000000000000000000000000000000000000100000001000000001100000000000000010000011000000000000001000000000000000000001000000000000000000000000001000101000000000000000000000000000000000110000000000000100000000000000000001000000000000000000010000000010001100000000000001000000000000000000000100010000000000000110010000000000000000000000000000000010000000000000000000110000000000000000000000000000000000000000000000110000000000000000001100000000000000010000000000000000000000000000000000000000000000000000000001000010000000000001100001000000000000000000000000001000000000000000000000010000000000000000000000000000000001110000000000100000000011100000100000100000000000100001000000100000000010000000001000000100000000000000000000000000000000000000000000000000000000000000000000000000000000000000000000100000000000000000000000000000000000000000000000000000000000000000001000000000000100011000000000000000000100010000000100000000100000000000000000000000000000010011000000

>  <MACCS166> (1aoeB1)
000000000000000000000000110000000100010000001000010010000000000010000000001111010011100000000001011000001100000000000011110010000010101010000100100100100001010010101000

>  <OB_MW> (1aoeB1)
265.133

>  <OB_logP> (1aoeB1)
3.8244

>  <OB_PSA> (1aoeB1)
82.75

>  <OB_MR> (1aoeB1)
83.3848

>  <OB_ATOMIC_CHARGES> (1aoeB1)
-0.0860061864 -0.1070526713 -0.0026396966 -0.0026396966 0.000492878 0.000492878 0.0763698932 0.0202462761 0.0207715522 0.0187492194 -0.192832795 -0.2110135418 0.1300956878 -0.3201929279 0.2578162515 0.1740505581 0.087148193 0.0605476187 0.0215503205 0.0540461891

>  <MCT_HBD> (1aoeB1)
2

>  <MCT_HBA> (1aoeB1)
5

>  <ENSEMBLE_TOTAL> (1aoeB1)
2

>  <ENSEMBLE_COORDS> (1aoeB1)
-5.0908 -1.9364 0.0265 -0.9278 -3.1834 -1.2955 3.4582 2.2176 -2.0725 2.5822 1.3686 2.9715 3.7782 2.4946 -0.6035 3.4552 1.7096 1.7945 2.4592 -0.2004 -0.5025 1.4862 -1.1334 -0.7795 -1.6098 1.3146 0.7265 -0.2388 1.6216 0.6715 -2.9348 -2.4384 -0.6095 -3.4278 -0.3104 0.3325 2.7472 2.0136 0.4345 1.9502 0.8166 0.0335 -3.8188 -1.5704 -0.1155 -1.6918 -2.1424 -0.7755 -2.0048 0.0556 0.2425 0.6932 0.7176 0.1445 0.2572 -0.5194 -0.3285 -1.1218 -0.8954 -0.2955
-5.1973 -1.5256 0.1364 -1.0371 -3.2119 -1.3945 3.1293 3.1398 2.1873 2.3930 3.0349 -1.4330 3.0690 1.8818 1.7474 3.3476 2.4268 -0.7260 2.5778 -0.8347 -0.5869 1.4690 -1.5808 -0.8228 -1.3371 1.1723 0.8267 -0.0127 1.3792 0.7300 -3.1012 -2.3365 -0.6119 -3.2529 -0.2173 0.4728 3.1640 1.4109 0.3428 2.2150 0.3757 0.0186 -3.8061 -1.3530 -0.0031 -1.7598 -2.1875 -0.7487 -1.9194 -0.0874 0.3242 0.8306 0.3632 0.1545 0.3342 -0.7937 -0.3364 -1.1058 -1.0563 -0.2775

>  <OB_ATOM_TYPES> (1aoeB1)
N.pl3 N.pl3 C.2 C.2 C.2 C.2 C.ar C.ar C.ar C.ar N.ar N.ar C.3 N.ar C.ar C.ar C.ar C.ar C.ar C.ar

>  <ENSEMBLE_RMSD> (1aoeB1)
0.000 1.687

$$$$
