
 OpenBabel03071213D

 35 34  0  0  0  0  0  0  0  0999 V2000
   21.6650   14.5560   25.5010 C   0  0  0  0  0
   14.3780    4.6600   19.6910 C   0  0  0  0  0
   13.6190    3.6990   17.5650 C   0  0  0  0  0
   20.4730    4.2560   17.8390 C   0  0  0  0  0
   20.3120    6.6250   17.1640 C   0  0  0  0  0
   19.5160    9.9810   23.8310 C   0  0  0  0  0
   18.0160    8.1750   22.9680 C   0  0  0  0  0
   24.2520    4.9300   19.8910 N   0  0  0  0  0
   23.2200   12.4700   20.1800 O   0  0  0  0  0
   17.2100    4.0790   19.9240 O   0  0  0  0  0
   24.4520   11.2400   24.1330 O   0  0  0  0  0
   22.3270    8.3940   22.7050 O   0  0  0  0  0
   18.2980    8.1010   19.6030 O   0  0  0  0  0
   24.3380    6.0550   18.9110 C   0  0  0  0  0
   22.2790   13.2050   25.1680 C   0  0  0  0  0
   24.4590    7.2840   19.8780 C   0  0  0  0  0
   24.0570    8.4950   19.0470 C   0  0  0  0  0
   24.2170    9.8420   19.6330 C   0  0  0  0  0
   15.9970    4.5340   17.8420 C   0  0  0  0  0
   23.0800   12.0760   22.4260 C   0  0  0  0  0
   18.0490    5.6090   18.4820 N   0  0  0  0  0
   22.1030    9.8790   20.9330 N   0  0  0  0  0
   20.0330    7.3890   20.9900 N   0  0  0  0  0
   23.4360   13.3690   24.2190 O   0  0  0  0  0
   14.8110    3.8320   18.4830 C   0  0  0  0  0
   20.4240    5.6900   18.3900 C   0  0  0  0  0
   19.4630    8.6030   23.1130 C   0  0  0  0  0
   23.7360   11.7390   21.1200 C   0  0  0  0  0
   23.5500   10.2150   20.9470 C   0  0  0  0  0
   19.2360    5.8820   19.3380 C   0  0  0  0  0
   20.1500    8.6590   21.7390 C   0  0  0  0  0
   17.1540    4.7370   18.8420 C   0  0  0  0  0
   23.9940   12.2990   23.6030 C   0  0  0  0  0
   21.6610    8.9920   21.8230 C   0  0  0  0  0
   19.1450    7.2460   20.0120 C   0  0  0  0  0
  1 15  1  0  0  0
  2 25  1  0  0  0
  3 25  1  0  0  0
  4 26  1  0  0  0
  5 26  1  0  0  0
  6 27  1  0  0  0
  7 27  1  0  0  0
  8 14  1  0  0  0
  9 28  1  0  0  0
 10 32  2  0  0  0
 11 33  2  0  0  0
 12 34  2  0  0  0
 13 35  2  0  0  0
 14 16  1  0  0  0
 15 24  1  0  0  0
 16 17  1  0  0  0
 17 18  1  0  0  0
 18 29  1  0  0  0
 19 25  1  0  0  0
 19 32  1  0  0  0
 20 28  1  0  0  0
 20 33  1  0  0  0
 21 30  1  0  0  0
 21 32  1  0  0  0
 22 29  1  0  0  0
 22 34  1  0  0  0
 23 31  1  0  0  0
 23 35  1  0  0  0
 24 33  1  0  0  0
 26 30  1  0  0  0
 27 31  1  0  0  0
 28 29  1  0  0  0
 30 35  1  0  0  0
 31 34  1  0  0  0
M  END
>  <MOLID> (1aptA1)
1aptA1

>  <SMILES_CANONICAL> (1aptA1)
NCCCC[C@@H]([C@H](CC(=O)OCC)O)NC(=O)[C@H](C(C)C)NC(=O)[C@H](C(C)C)NC(=O)CC(C)C	

>  <FINGERPRINT> (1aptA1)
0000000000000011000000000000000000000001000000000111000000000000000000000001000000000000000000000000010000000001000001110000000000000000000110000000000011000000000000000000000000000000000000000000000000000000000000000000000000100000000000000000000000001000000000000000000000000000000000000000000100000000000000001000000000000000001000000000000000000000010000000000000110110000000000000001011000000000100000000000101000000000100000000010000000000001100000000001100000000000000000000000000000001000000100000000100000010000100000100000000000000000000000000000000000000000000000000000000101000000001000000000000000000000000000000000001000000001000000000000000000000000001000000011000000000100000011100011000000000011000000000000000000000011000000100001000000000000000110000000000000000000000001000000000000000000000000000000000000000000000000000000000000000010000000000001000000000000000000000000000000001000000000000000001000000000000000000000010000000000000000010010000000000010010000000000000000000000100000000010101000000000

>  <MACCS166> (1aptA1)
000000000000000000000000000000000000000000000000000001000000000000000000010000100101000011110010000100010001011001101100001001011011000101111100011010111111111110010000

>  <OB_MW> (1aptA1)
500.357

>  <OB_logP> (1aptA1)
3.115

>  <OB_PSA> (1aptA1)
159.85

>  <OB_MR> (1aptA1)
136.448

>  <OB_ATOMIC_CHARGES> (1aptA1)
0.0512702284 0.000503441 0.000503441 0.0022754244 0.0022754244 0.0022754269 0.0022754269 -0.1313873311 -0.220700833 -0.2733315613 -0.2500115527 -0.2714871996 -0.2714758668 0.1093071751 0.2085561324 0.0205590318 0.0033789571 0.0243375372 0.0868226526 0.1440907111 -0.1977780799 -0.2031315242 -0.1963426209 -0.4484338003 0.0091371307 0.0289616879 0.0289622907 0.1828459652 0.1261565744 0.1726466428 0.1726895486 0.2417551171 0.3196534917 0.2612376054 0.2616033053

>  <MCT_HBD> (1aptA1)
5

>  <MCT_HBA> (1aptA1)
10

>  <ENSEMBLE_TOTAL> (1aptA1)
47

>  <ENSEMBLE_COORDS> (1aptA1)
1.0047 6.3618 4.7600 -6.2823 -3.5342 -1.0500 -7.0413 -4.4952 -3.1760 -0.1873 -3.9382 -2.9020 -0.3483 -1.5692 -3.5770 -1.1443 1.7868 3.0900 -2.6443 -0.0192 2.2270 3.5917 -3.2642 -0.8500 2.5597 4.2758 -0.5610 -3.4503 -4.1152 -0.8170 3.7917 3.0458 3.3920 1.6667 0.1998 1.9640 -2.3623 -0.0932 -1.1380 3.6777 -2.1392 -1.8300 1.6187 5.0108 4.4270 3.7987 -0.9102 -0.8630 3.3967 0.3008 -1.6940 3.5567 1.6478 -1.1080 -4.6633 -3.6602 -2.8990 2.4197 3.8818 1.6850 -2.6113 -2.5852 -2.2590 1.4427 1.6848 0.1920 -0.6273 -0.8052 0.2490 2.7757 5.1748 3.4780 -5.8493 -4.3622 -2.2580 -0.2363 -2.5042 -2.3510 -1.1973 0.4088 2.3720 3.0757 3.5448 0.3790 2.8897 2.0208 0.2060 -1.4243 -2.3122 -1.4030 -0.5103 0.4648 0.9980 -3.5063 -3.4572 -1.8990 3.3337 4.1048 2.8620 1.0007 0.7978 1.0820 -1.5153 -0.9482 -0.7290
-0.0703 5.2071 4.0327 -4.5474 -0.9391 -3.0506 -6.5132 -1.1751 -1.5844 0.8626 -4.4832 -0.6138 -0.6755 -5.1879 -2.3747 -3.2733 0.4828 0.5973 -1.6661 2.3078 0.7536 5.4606 -0.8850 -3.1151 4.4513 2.7098 1.1600 -4.2827 -4.0960 0.1754 3.5380 3.5522 4.5423 0.9169 -0.1214 -1.2946 -0.9568 -2.7020 1.5694 4.6134 0.2694 -3.3430 1.4234 5.2843 4.2311 4.0081 0.7170 -2.0321 3.2093 1.9704 -2.2920 2.4335 2.5461 -1.1307 -4.9615 -3.0737 -1.8810 2.6215 2.3910 2.6477 -2.6722 -3.3566 -1.3295 1.1652 1.2916 0.5186 -1.1645 -1.3051 -0.2637 2.0632 4.6248 3.1411 -5.0716 -1.5695 -1.7835 -0.3256 -4.0483 -1.4412 -1.9295 0.9713 0.0974 3.0324 2.7393 1.2324 2.4887 1.7847 0.1793 -1.5019 -3.6889 -0.5494 -0.8331 -0.0483 0.3880 -3.9573 -3.5652 -0.8808 2.8034 3.5654 3.5634 0.4927 0.3547 -0.2440 -1.1818 -2.5244 0.3742
0.3897 5.5835 3.1880 -2.8867 -5.5832 -4.2110 -5.1971 -4.9424 -3.6433 -4.7775 0.3932 -0.2645 -3.3100 1.0554 -2.1471 -1.0340 3.0131 0.9477 -2.7014 2.1961 2.5808 5.9358 -2.2797 -3.8834 4.6419 1.4537 1.2400 -1.3616 -3.5436 -1.5453 3.9685 4.1419 3.0762 0.9488 -0.2057 2.8378 -2.5295 -1.7659 1.2864 5.6054 -2.0698 -2.4855 1.7750 5.6739 2.5971 4.4165 -1.1440 -2.4085 4.0472 -0.8993 -0.9649 2.9642 0.1509 -0.8887 -3.4124 -4.7030 -1.9631 2.6883 2.2715 2.2946 -3.3889 -2.4631 -1.1803 1.1572 0.5327 0.6470 -1.5482 0.1647 0.4678 2.0396 4.4796 1.8634 -3.7402 -4.6113 -3.4345 -3.9314 -0.1060 -1.4112 -1.2873 2.0418 2.0752 3.2697 1.7447 0.9971 2.5978 0.4519 0.5516 -2.8758 -1.1235 -1.0292 -1.0040 0.5979 1.7250 -2.5877 -3.5165 -1.5659 2.9939 3.7232 2.4676 0.4627 0.2561 1.8077 -2.3283 -0.9688 0.3752
2.8713 7.1071 3.5933 -7.6257 -4.4264 -1.4725 -6.8808 -3.4650 -3.6087 0.0081 -3.7233 -2.4413 -1.8238 -5.3091 -2.8172 -3.2687 0.9998 -0.3583 -1.3873 2.4493 0.2023 7.4946 3.0877 -1.9599 2.6122 0.6234 3.2135 -4.6145 -3.3035 0.4183 3.1672 3.2750 4.7219 1.0645 -0.3604 -1.2608 -0.9145 -2.8734 0.6731 6.5747 1.9743 -1.8117 3.5645 5.8650 4.0991 5.3287 2.4643 -1.1141 4.4203 1.2992 -0.7955 3.0893 1.8114 -0.2946 -5.8874 -2.6669 -1.5055 2.4060 2.8921 2.4571 -3.5184 -2.8738 -1.5838 1.1216 0.7808 0.7528 -1.4173 -1.1896 -0.8316 3.5067 4.8604 3.0833 -6.4384 -3.8760 -2.2249 -1.4945 -3.8668 -2.5067 -1.7748 1.1855 -0.5295 3.0067 1.5237 2.1878 2.5650 0.9527 0.8413 -2.2289 -3.4375 -1.2506 -1.0103 -0.0389 -0.0370 -4.6244 -3.0184 -0.7747 3.0830 3.6562 3.5625 0.4919 0.0999 -0.2756 -1.4667 -2.4790 -0.3518
3.6894 6.8796 1.5817 -4.1169 -0.7639 -3.7309 -6.0289 -0.9726 -2.1899 0.4820 -5.1855 -0.2468 -0.6046 -5.5321 -2.4038 -3.4300 -0.4582 1.3286 -1.9754 1.4408 1.7723 4.7494 0.9410 -4.1999 2.9374 1.2199 3.1097 -4.6137 -4.2389 -0.7148 2.2817 4.5834 4.5157 0.5759 -0.1739 -0.9636 -1.6499 -3.3973 1.6127 4.6267 1.9252 -3.1413 3.8207 6.1725 2.9086 3.4151 1.5895 -2.3073 3.4544 2.4101 -1.0416 2.1145 2.3699 -0.3503 -4.6511 -2.9512 -2.7327 1.8601 3.2854 2.5359 -2.6114 -3.5462 -1.6716 0.8827 0.8268 1.1017 -1.2277 -1.8157 -0.0257 3.6833 4.7693 2.7011 -4.6346 -1.4587 -2.4961 -0.3946 -4.5290 -1.2894 -2.1832 0.2578 0.8534 2.7373 2.1457 2.0573 2.1712 1.4328 0.8397 -1.7178 -4.1000 -0.6792 -0.9753 -0.6733 0.8363 -3.9821 -3.6474 -1.5835 2.6142 4.2711 3.3796 0.2315 0.0021 0.2026 -1.5304 -3.0790 0.4314
0.1424 5.3154 3.4764 -4.8024 -1.1638 -3.5620 -6.4396 -0.9083 -1.7385 0.2316 -4.9180 0.1151 -1.2033 -5.6852 -1.7038 -3.3283 0.6352 0.1802 -1.5283 2.2711 0.2736 6.6644 2.9179 -3.7940 4.5523 1.9441 1.3941 -4.8637 -3.8274 0.2286 3.3764 3.3114 4.5962 0.9451 -0.6938 -1.0928 -1.5568 -2.6275 1.8104 6.0192 1.8339 -3.0757 1.6057 5.2474 3.8364 4.7536 2.3670 -2.4515 4.0433 1.2631 -1.7065 2.7695 1.8016 -1.0966 -5.2001 -3.0283 -2.0022 2.5734 2.0648 2.7014 -3.0290 -3.4818 -1.1586 1.1581 0.9505 0.5208 -1.3751 -1.4880 -0.1971 2.2634 4.3941 2.9028 -5.1206 -1.5249 -2.1319 -0.7957 -4.4685 -0.8995 -1.8904 0.8893 -0.2226 3.1555 2.2001 1.3094 2.5645 1.2299 0.2946 -1.9947 -3.8357 -0.2132 -0.9633 -0.1925 0.3246 -4.3688 -3.4808 -0.8383 2.7962 3.3052 3.5185 0.4655 -0.0218 -0.1817 -1.6202 -2.5958 0.5833
0.2543 5.5885 4.6515 -4.7446 -6.5993 -1.2862 -6.7635 -5.1973 -1.3887 -4.2144 0.1441 -2.9329 -2.6075 -1.3669 -4.0670 -0.1497 2.1030 -3.1044 -1.8727 3.1152 -1.6536 7.6881 -1.4671 -1.8736 4.2100 1.0987 2.8965 -2.4670 -4.0724 -0.0493 3.2782 3.2608 5.0023 1.3022 -0.3354 -1.0654 -2.8583 -0.1957 0.3396 6.5825 -1.5792 -0.9392 1.7566 5.4616 4.5863 5.7226 -0.3455 -1.0719 4.6382 -0.3456 -0.0204 3.8712 0.9574 -0.0733 -4.8298 -4.4474 -0.0702 2.1540 2.2614 3.1120 -3.8840 -2.4031 -0.8270 1.5287 1.4302 0.4177 -1.3074 0.0810 -1.3559 2.0987 4.5710 3.5241 -5.2557 -5.1794 -1.3212 -3.5810 -1.2253 -2.9239 -0.5425 2.3989 -1.6749 3.2607 1.8623 2.1551 2.7888 0.9914 0.9948 -2.9440 -1.6391 -1.6130 -0.5618 1.1777 -0.7683 -3.5842 -3.6535 -0.3325 2.5933 3.3951 3.9975 0.8425 0.6595 -0.5081 -2.4023 -0.5055 -0.7566
5.5405 5.7825 2.8051 -5.3187 -6.9630 -1.5129 -6.6063 -5.4375 -2.9515 -3.1215 -0.6974 -3.8284 -1.3456 -2.4295 -3.7678 -0.3170 1.7604 -2.6532 -2.3440 2.4325 -1.4024 6.9425 -0.3039 -1.6715 1.4815 1.5134 3.9747 -3.4420 -4.2642 0.1977 2.0658 5.1762 4.3418 1.3114 -0.4161 -0.5216 -3.5189 -0.3823 -0.3228 5.7259 -0.4708 -0.8993 4.7483 5.3947 4.0291 5.6927 0.5915 0.1712 4.5260 0.3436 1.0947 3.4506 1.3717 0.8396 -5.5454 -4.5793 -0.9014 2.0884 3.4470 2.6792 -4.1174 -2.7584 -1.4368 1.0126 1.2862 1.0229 -1.3201 -0.5006 -1.0407 4.0544 4.1780 3.7550 -5.4038 -5.5542 -2.0469 -2.7211 -2.0461 -3.2836 -0.9242 1.9335 -1.2814 2.3663 1.9885 2.9754 2.2613 1.1107 1.7401 -2.8317 -2.1983 -1.7806 -0.8344 0.7018 -0.3944 -4.2385 -3.8857 -0.6547 2.7091 4.3641 3.6902 0.6048 0.4370 0.0095 -2.6317 -0.9259 -0.9741
1.6996 6.2561 4.8440 -6.9970 -4.2404 -1.3826 -6.7249 -4.8371 0.9856 -3.1062 -1.0641 -4.3223 -1.1543 -2.5932 -4.3261 -0.0549 1.7933 -3.3438 -2.0564 2.4705 -2.0654 7.9276 0.1361 0.2505 1.7657 0.3580 3.3048 -2.9181 -3.5402 0.4357 2.0647 2.8124 5.1413 1.5933 -0.3565 -1.3694 -3.1936 -0.4941 -0.8427 7.0257 0.1023 -0.8877 2.9011 5.3514 4.9877 5.9033 1.0905 -0.6712 4.8062 0.4750 0.1668 3.6626 1.4504 0.3176 -4.7546 -4.7555 -0.5030 2.0326 2.6735 2.7268 -3.6448 -3.0304 -1.7121 1.2492 1.0474 0.4416 -1.0722 -0.4719 -1.7712 2.9783 4.4898 3.8493 -6.0894 -4.1215 -0.1816 -2.5116 -2.3180 -3.7295 -0.6400 1.9553 -1.9599 2.5548 1.2614 2.5453 2.5270 0.8116 1.0899 -2.4643 -2.3636 -2.2146 -0.5653 0.7049 -1.0960 -3.6708 -3.7163 -0.5167 2.3768 3.2833 4.0566 0.8697 0.3903 -0.7151 -2.3199 -1.0106 -1.5328
0.6854 4.9191 5.7417 -5.9958 -5.3331 0.8292 -3.9370 -6.2850 -0.1053 -4.3758 0.1659 -3.1074 -2.8517 -1.0453 -4.6586 0.1999 3.6899 -1.8100 1.2701 1.8792 -3.1227 6.0870 -3.2905 -0.5183 1.3550 1.7763 3.2907 -3.2779 -4.3552 -2.8185 4.1876 3.9210 3.9774 1.0842 -0.4951 -0.7894 -2.6155 -0.2357 -0.1984 5.7012 -2.3739 0.5398 2.1054 5.1034 5.2642 4.7725 -1.3193 -0.0205 4.4365 -0.3063 1.0533 3.6502 0.8599 0.4898 -5.0410 -4.3264 -1.2033 2.6754 3.4153 2.1687 -3.4617 -2.5301 -1.3992 1.2798 1.5028 0.3564 -1.2092 0.2589 -1.9692 2.1314 4.9557 3.8441 -4.7095 -5.0048 0.1081 -3.6176 -1.1108 -3.3625 0.0270 2.3026 -2.3765 2.4959 1.9401 2.4616 2.3427 1.0615 1.2347 -2.7394 -1.5761 -2.2186 -0.4404 1.3116 -1.3242 -3.8213 -3.7708 -1.8854 3.1065 4.0992 3.4339 0.7067 0.6536 -0.5715 -2.2067 -0.4577 -1.3343
5.1103 6.0456 2.8834 -4.2814 -7.1298 -0.8940 -5.8020 -6.1228 -2.5448 -4.2194 0.0950 -3.4952 -2.3062 -1.0964 -4.5330 -2.4369 2.8624 -1.6797 -0.4661 3.5471 -0.4279 7.3396 -1.0500 -1.1830 1.3682 1.0065 3.7993 -2.5588 -3.9339 -0.3262 2.1987 4.0309 4.9350 0.9694 -0.2266 -0.9501 -3.3610 -0.5660 -0.1166 6.2002 -1.2949 -0.3164 4.4074 5.3563 4.0258 5.3223 -0.0670 -0.3238 4.1628 -0.2549 0.6252 3.3154 0.9964 0.6485 -4.7725 -4.7128 -0.8094 2.1679 3.0133 2.7517 -3.9461 -2.6804 -1.7091 0.8729 1.1989 0.8719 -1.5952 0.0778 -1.4680 4.0975 4.0177 3.6393 -4.5582 -5.8981 -1.7206 -3.4442 -1.1975 -3.5500 -1.0337 2.4440 -1.2920 2.3053 1.5070 2.8605 2.1012 0.7938 1.5315 -2.9739 -1.7351 -2.2129 -1.0376 1.0922 -0.5864 -3.6140 -3.7668 -0.9284 2.7980 3.7268 3.9121 0.3714 0.6044 -0.2711 -2.7013 -0.6831 -1.1454
-1.2576 5.3984 3.0958 -7.1566 -2.0713 -0.9532 -7.2821 -3.2497 1.2027 -2.1447 -1.5405 -4.0490 -0.7811 -3.5167 -3.4112 0.5822 2.5660 -2.1460 1.8277 0.6177 -3.0377 7.5059 -0.2375 -2.5108 3.4252 1.3592 3.7623 -3.3506 -3.9112 0.6154 1.3232 3.4331 5.1261 1.9289 -1.1182 -0.2131 -2.5607 -0.3226 -0.6179 6.1117 -0.2992 -2.1112 0.0964 5.4404 3.7611 5.9462 0.4892 -0.8344 4.5965 0.2016 -0.2268 4.2398 1.2515 0.8020 -5.5089 -3.8286 -0.4195 1.3035 2.1756 3.0688 -3.6411 -2.6799 -1.3355 1.8182 1.0815 0.5181 -0.4635 -0.9124 -1.3932 0.9528 4.4959 3.1183 -6.3464 -2.7062 0.1511 -2.0558 -2.7530 -3.1560 0.5546 1.0739 -2.3665 2.7425 1.9327 2.6527 2.9022 0.9789 1.4735 -2.2501 -2.4882 -1.6768 0.2039 0.3353 -1.0888 -4.0514 -3.4889 -0.2981 1.1996 3.4167 3.9092 1.4021 -0.0084 -0.2268 -1.8128 -1.1150 -1.1845
4.5148 6.1179 2.8314 -7.4192 -4.9269 0.1608 -6.7975 -6.4578 -1.6703 -2.5709 -0.8412 -4.4108 -1.1328 -2.8233 -4.0010 -0.2774 2.9717 -1.2063 1.1121 1.4251 -2.5478 8.0497 0.8151 -0.5322 1.5172 0.9116 3.8886 -3.9680 -3.9860 -0.2642 1.4821 4.5232 4.5755 1.2147 -1.0538 -0.3579 -3.3548 -0.3078 -0.8528 7.0322 0.3517 0.3933 3.9657 5.4365 4.0606 5.7351 1.0507 0.0682 4.6821 0.6738 1.0816 3.3556 1.2801 0.6866 -5.9340 -4.1375 -1.6587 1.7388 3.0068 2.7316 -4.2014 -2.5705 -2.0849 0.9623 0.8352 0.9578 -1.1653 -0.6178 -1.5427 3.5746 4.1085 3.7136 -6.3255 -5.3197 -0.8013 -2.4764 -2.1898 -3.7417 -0.2144 1.6079 -1.8495 2.2732 1.6000 2.9073 2.2559 0.8024 1.6126 -2.8120 -2.2100 -2.2646 -0.5687 0.5124 -0.8590 -4.5918 -3.5934 -1.2445 2.2266 3.9492 3.7910 0.6271 -0.0116 -0.0817 -2.5099 -0.9327 -1.4881
4.1874 6.0523 3.2716 -6.6608 -3.6549 -0.6359 -5.6265 -5.0082 1.1420 -1.7379 -0.9380 -4.7660 -3.2591 -2.8115 -5.0633 -2.5264 2.4788 -1.8129 -0.7035 3.1884 -0.3662 8.1379 0.8441 0.3987 1.5362 0.3340 3.5008 -2.2105 -4.4412 -0.9928 1.8516 3.1766 5.1015 1.1363 -0.3290 -1.3233 -3.4598 -0.8146 -0.8862 6.9185 0.0954 0.1547 3.6659 5.1031 4.3212 5.7471 1.0251 0.3507 4.4574 0.2436 0.3055 3.2878 1.1977 0.3560 -4.5642 -4.8785 -1.0832 1.8618 2.5965 2.7656 -3.5854 -3.0810 -2.2809 0.8735 0.8646 0.6431 -1.4448 -0.2228 -1.8508 3.6172 3.7909 3.7659 -5.3516 -4.1157 -0.0422 -2.9125 -1.6584 -4.1424 -1.1078 2.1541 -1.3940 2.3039 1.1521 2.6336 2.1828 0.6200 1.2148 -2.5813 -2.1398 -2.7340 -1.0014 0.7326 -0.8497 -3.3132 -4.1228 -1.4237 2.4153 3.2076 4.0167 0.4480 0.3542 -0.5694 -2.5816 -0.9952 -1.7254
0.3921 5.5845 4.4773 -3.9799 -6.4206 -0.2004 -6.0299 -5.0615 -0.1425 -3.1275 -0.0720 -4.3780 -4.5631 -1.9840 -3.9293 -0.8047 3.9983 -1.5416 1.2208 2.8990 -2.4269 7.3378 -2.1356 -1.3025 3.3011 0.3853 3.1978 -1.7475 -3.5558 -0.8487 2.3677 2.6983 5.2319 0.9695 -0.3150 -1.2912 -2.9538 0.1729 -0.1911 6.2364 -2.0704 -0.3595 1.8655 5.2547 4.4991 5.4219 -0.8374 -0.6664 4.2643 -0.7345 0.2959 3.5731 0.6003 0.1371 -3.8429 -3.9910 0.2255 1.5744 2.0079 3.0634 -3.5717 -2.1805 -1.2807 1.2476 1.3026 0.3494 -1.4731 0.6508 -1.9020 2.1275 4.2356 3.5338 -4.5728 -5.0737 -0.5349 -3.8666 -0.8049 -3.2803 -0.2395 2.7136 -2.0944 2.7392 1.3696 2.3353 2.3539 0.6685 1.0396 -2.9151 -1.2445 -2.1725 -0.5811 1.5446 -1.1866 -2.9255 -3.2488 -0.7008 2.0741 2.9913 4.0807 0.6142 0.7215 -0.7364 -2.4861 -0.0692 -1.3002
4.4451 6.0272 3.3286 -5.5626 -5.6948 -1.4047 -3.6696 -7.0147 -0.5632 -5.2380 0.0229 -2.4664 -3.6382 0.0404 -4.3624 -3.0622 3.1537 -0.7660 -0.9138 3.6411 0.2707 7.4851 -0.8694 0.5377 1.8313 0.2474 3.2677 -1.5001 -3.7092 -1.5205 2.8435 2.9109 4.9647 0.4584 0.1667 -1.4326 -2.9905 -1.1775 -0.0096 6.3143 -0.8325 -0.3194 4.6321 4.7628 4.1316 5.3359 0.1754 0.2343 4.0185 0.0633 -0.4980 3.0846 1.1779 -0.0829 -3.2793 -5.1747 -2.1692 2.3298 2.5175 2.6440 -3.5583 -2.8074 -2.1085 0.7294 1.1503 0.6430 -2.1602 0.4760 -1.3979 4.2789 3.6407 3.3202 -4.1110 -5.6364 -0.9931 -4.2323 -0.7851 -3.2492 -1.6034 2.7441 -0.7317 2.5395 1.0469 2.3339 2.0741 0.6757 0.9304 -3.1518 -1.4532 -2.4204 -1.4503 1.2622 -0.3976 -2.6642 -3.8331 -1.8875 3.1672 3.0097 3.7886 0.0044 0.8001 -0.4822 -2.7862 -0.7251 -1.1322
4.2998 5.9585 3.5075 -5.6972 -4.8124 -0.0966 -3.7495 -6.1248 0.6360 -5.1119 -0.3035 -3.0417 -3.1337 0.1319 -4.4822 -1.3735 2.9109 -2.2460 -3.0975 2.6179 -0.5036 7.5468 -0.3217 1.3280 1.7356 0.2588 3.2416 -1.6828 -4.2417 -2.2006 2.4743 2.9639 5.0204 0.8608 0.3091 -1.6504 -3.0610 -1.3217 -0.3474 6.6528 0.2358 0.3288 4.4416 4.7004 4.3292 5.2381 0.0094 0.7976 4.2616 0.2258 -0.3343 3.2466 1.2856 0.0309 -3.8139 -5.1829 -1.6449 2.1726 2.5533 2.6696 -3.6087 -2.9641 -2.4577 0.8386 1.1486 0.5074 -1.7982 0.0790 -1.6906 4.1063 3.5757 3.5164 -4.1977 -4.9526 -0.2011 -3.8913 -0.9052 -3.6923 -1.6457 2.3876 -0.8541 2.4712 1.0982 2.3690 2.1616 0.7193 0.9278 -2.9967 -1.6883 -2.7517 -1.2576 0.9304 -0.6520 -2.8963 -4.0911 -2.1128 2.9138 3.0317 3.8811 0.2508 0.7491 -0.6788 -2.6598 -0.9709 -1.4526
-0.0798 5.4232 4.2696 -5.2581 -3.4821 0.9783 -3.8122 -5.3695 1.6043 -4.5248 0.4711 -2.7620 -3.1914 -0.3158 -4.7031 -1.7345 3.0623 -2.4531 0.2891 3.5792 -1.2012 7.2436 -2.1832 -1.6648 3.6007 0.5651 3.0855 -1.8523 -4.1300 -1.8431 2.4005 2.6872 5.2081 1.1644 -0.4038 -1.3559 -2.4125 -0.8450 -0.2242 6.5117 -1.7852 -0.4757 1.3739 5.1000 4.5156 5.3129 -0.9696 -0.8984 4.4494 -0.6655 0.3020 3.6450 0.5952 0.0737 -3.9227 -4.6343 -0.7486 1.6148 1.8617 3.0813 -3.6006 -2.5983 -1.9256 1.2881 1.1854 0.3225 -1.3261 0.2367 -1.9557 1.8077 4.1551 3.5370 -3.9476 -4.1754 0.6918 -3.8511 -0.7139 -3.4078 -0.4125 2.4913 -1.9822 2.8154 1.4242 2.2635 2.4454 0.6387 1.0086 -2.8962 -1.4841 -2.5189 -0.6237 1.2284 -1.1539 -2.9882 -3.7740 -1.5493 1.9971 2.9206 4.0765 0.6989 0.5717 -0.7707 -2.2243 -0.6673 -1.4242
4.6024 6.9429 3.2311 -2.2358 -5.6513 -4.6849 -3.6165 -6.6959 -2.9410 -5.5060 -0.7895 0.3146 -5.9071 -2.0646 -1.7380 -3.4583 2.6737 0.4559 -1.2164 3.4959 0.9291 4.6519 -1.9252 -3.2157 2.3736 0.8715 3.4042 -1.3520 -2.6786 -2.6687 3.7860 3.2764 4.6301 0.2292 0.1855 -0.9407 -2.2996 -1.7111 1.1145 4.9756 -0.9436 -2.1978 4.8982 5.5764 3.7993 3.7081 -0.2546 -1.7491 4.0420 0.6987 -0.6258 2.8482 1.5419 -0.2443 -1.9870 -4.9605 -2.3223 2.7508 3.0452 2.4558 -3.0220 -3.1786 -1.1338 0.7688 1.2687 1.0338 -2.3509 0.1042 -0.3314 4.4750 4.5829 2.8630 -2.9636 -5.4090 -3.3846 -5.0202 -1.9529 -0.5181 -1.9914 2.4627 0.1427 2.9005 1.5456 2.2702 2.1987 1.0188 1.0225 -3.5673 -1.8476 -0.9492 -1.5624 1.0344 0.4656 -2.0897 -3.4786 -2.1032 3.7248 3.6110 3.4549 -0.1079 0.7782 0.0816 -2.6794 -1.1729 0.0799
0.8275 5.4654 3.7221 -5.8597 -3.5773 0.6836 -4.3142 -5.2003 1.6967 -4.3793 0.1614 -3.3857 -2.6415 -0.8107 -4.8686 -2.0089 3.0778 -2.2716 0.0628 3.5760 -1.0880 8.2195 -0.4166 -0.3786 3.5802 0.2259 2.8780 -1.9181 -4.2250 -1.4436 1.7506 2.2386 5.3561 1.0444 -0.3123 -1.5310 -2.7094 -0.8096 -0.2693 6.8685 -0.9475 -0.3659 1.9721 4.7506 4.3973 5.9077 0.2060 -0.2188 4.4906 -0.3092 -0.1528 3.5306 0.8574 -0.1192 -4.1514 -4.6799 -0.7096 1.5572 1.4517 3.0906 -3.6233 -2.7270 -1.9533 1.1440 1.0931 0.3075 -1.5042 0.2365 -1.9427 2.3298 3.6173 3.6077 -4.4481 -4.1125 0.6596 -3.5655 -1.0679 -3.7055 -0.6574 2.5131 -1.8858 2.7514 1.1661 2.2043 2.3913 0.5807 0.8451 -2.8179 -1.6787 -2.5372 -0.8037 1.2060 -1.1135 -3.0889 -3.8647 -1.3877 1.8881 2.4549 4.1591 0.5527 0.5709 -0.8318 -2.3777 -0.7099 -1.4471
4.9833 5.6035 3.3213 -4.6424 -4.6807 -0.0232 -2.7865 -6.0522 0.8246 -3.5269 0.0285 -4.6739 -4.2207 -2.3076 -4.6171 -1.8049 3.4328 -2.3571 0.0094 3.7385 -0.7618 5.7664 -2.5591 -1.3589 0.4729 1.1362 3.7866 -0.7939 -3.2139 -1.6234 1.6649 3.8986 5.0478 0.6213 -0.2823 -0.9155 -3.3891 -0.3089 -0.6961 4.7867 -2.4574 -0.2923 4.0763 5.0324 4.3826 4.3052 -1.0287 -0.2168 3.2951 -0.8817 0.8965 2.8731 0.5650 1.0205 -2.5329 -4.8320 -1.3026 1.8247 2.8920 2.8605 -3.0003 -2.6354 -2.0637 0.5181 1.2582 0.8098 -1.6612 0.5587 -1.9757 3.7053 3.7059 4.0102 -3.1394 -4.7873 0.0821 -3.8967 -1.1084 -3.7490 -0.6303 2.7394 -1.6987 1.6361 1.3946 3.0161 1.5139 0.6646 1.6845 -2.7632 -1.3995 -2.7757 -1.0717 1.4600 -0.9934 -1.9893 -3.4818 -1.6688 2.3591 3.5375 4.1069 0.1124 0.7062 -0.3926 -2.6747 -0.3357 -1.6936
2.5219 3.0145 6.5594 -6.5519 -2.8657 0.0011 -5.5953 -3.5183 2.1711 -3.5794 -1.3826 -4.4692 -1.4339 -2.6017 -4.7161 0.2315 1.4267 -4.0322 -1.8366 2.4620 -3.1679 8.1083 0.0451 1.2128 3.1688 1.4645 2.8974 -2.1597 -3.9559 0.0307 2.0974 4.8598 2.9362 1.3203 -0.5685 -1.4041 -3.1475 -0.5456 -1.0880 6.7845 -0.5323 1.0670 2.2205 4.0907 5.5471 5.8527 0.5355 0.5484 4.4430 -0.0028 0.5099 3.5090 1.0421 -0.0548 -4.5324 -4.2752 0.0802 1.1667 2.6690 2.5047 -3.4634 -3.1772 -1.7318 1.0965 1.3670 -0.1402 -1.1737 -0.4280 -2.2924 1.2155 3.6109 4.6544 -5.2685 -3.1368 0.7484 -2.7162 -2.4963 -3.9304 -0.4949 1.8791 -2.7855 2.4162 2.1025 1.8692 2.2176 1.0949 0.7453 -2.4448 -2.4403 -2.4404 -0.6472 0.7984 -1.7249 -3.2455 -3.7818 -0.5122 1.5612 3.8450 3.3596 0.6894 0.4414 -1.0946 -2.3302 -1.0404 -1.8579
1.3366 5.4455 3.4845 -3.3922 -4.8911 0.8994 -1.2161 -5.7454 0.1325 -5.6720 0.3670 -1.3441 -5.3089 -0.1922 -3.7160 -2.2401 3.4939 -1.7401 -0.0339 3.7002 -0.7368 7.5748 -1.4273 -1.1568 3.6834 0.0975 2.6019 -1.7003 -3.0592 -2.8858 2.4621 2.3056 5.2603 0.3782 -0.3554 -1.3110 -3.1029 -0.4994 0.2111 6.1811 -1.7552 -0.9178 2.5274 4.7741 4.1227 5.4151 -0.4694 -0.7266 3.9659 -0.7722 -0.4321 3.1833 0.5191 -0.3564 -2.7559 -4.6742 -1.4700 1.8139 1.4763 3.0933 -3.6207 -2.4744 -1.7093 0.9371 1.1107 0.3918 -2.0739 0.6105 -1.5479 2.8230 3.5875 3.3889 -2.2417 -4.6535 -0.0491 -5.1169 -0.6639 -2.2961 -0.9354 2.7598 -1.5041 2.8141 1.0695 2.0303 2.1793 0.4638 0.7822 -3.6746 -1.0752 -2.0711 -1.1658 1.4427 -0.7674 -2.6025 -3.3189 -2.0969 2.3997 2.4773 4.0498 0.1223 0.6314 -0.6235 -2.9432 -0.3053 -0.9898
1.3097 5.5883 3.3403 -3.6303 -4.3462 1.0212 -1.6380 -5.7292 0.6047 -5.1397 0.7285 -3.0607 -5.7560 -1.6061 -3.4068 -0.5286 3.8856 -0.6916 0.1851 2.6501 -2.7206 7.5836 -1.4575 -0.7553 3.5203 0.1348 2.7523 -1.5950 -3.0850 -2.7103 2.1899 2.3758 5.3289 0.3890 -0.3866 -1.2677 -3.2280 -0.3434 0.0898 6.1856 -1.7719 -0.5234 2.3239 4.8328 4.1619 5.4096 -0.4790 -0.4771 3.9441 -0.7647 -0.2557 3.1737 0.5356 -0.2297 -2.7640 -4.6072 -1.2774 1.6431 1.5347 3.1387 -3.5738 -2.4186 -1.6871 0.8990 1.1514 0.3930 -2.0787 0.6691 -1.6547 2.6641 3.6349 3.4675 -2.3834 -4.4884 0.1807 -5.0682 -0.6523 -2.4508 -0.8557 2.7534 -1.6314 2.6908 1.1112 2.1303 2.1137 0.5011 0.8572 -3.6257 -1.0645 -2.1945 -1.1330 1.4604 -0.8836 -2.5493 -3.2937 -1.9699 2.1908 2.5376 4.1154 0.1174 0.6263 -0.6270 -2.9859 -0.2174 -1.1066
3.5323 6.2817 0.9011 -3.8663 -4.0206 -3.6270 -1.7210 -3.8306 -4.8111 -5.2035 -1.2270 0.9867 -4.3971 1.1177 1.0380 -0.3123 -2.1626 4.6796 -0.3354 0.2512 4.1303 6.5691 -2.0612 -2.5786 3.3810 2.5056 0.6912 -1.3677 -0.3648 -2.6642 0.6920 4.3850 -0.6888 1.4624 -2.1130 1.7947 -2.2493 -2.7002 0.1388 6.1101 -1.3156 -1.4210 2.0457 6.2993 0.6418 4.6037 -1.2320 -1.4675 4.1064 -0.3881 -0.3193 2.6035 -0.2561 -0.3883 -2.8161 -1.8092 -3.9090 1.0892 2.8883 1.1689 -3.3808 -1.0519 -1.7266 0.7691 0.0123 1.1675 -1.8229 -0.8884 1.5259 1.4446 5.2005 1.3288 -2.5515 -3.2796 -3.6777 -4.5151 -0.1343 0.2058 -0.9071 -1.1027 3.7850 2.0742 2.0033 0.4349 2.0714 0.5266 0.7998 -3.1804 -0.5220 -0.3979 -0.7780 -1.4767 2.3240 -2.4126 -1.0056 -2.7067 1.0434 4.2220 0.4715 0.6012 -1.2359 1.7408 -2.3819 -1.5151 0.4287
-0.0271 6.0667 -0.8617 -5.9955 -3.3080 -2.0800 -5.1447 -3.6262 -4.3687 -3.9600 -0.3522 1.9507 -2.4851 1.5483 1.3295 -1.2213 -2.8632 3.1600 1.1737 -3.3261 3.1343 7.7692 -0.2271 -0.0168 2.9838 1.8706 2.4110 -2.5870 -0.6514 -3.2170 1.2814 4.4157 2.2206 2.3032 -2.4194 0.1776 -2.4240 -2.6941 -0.0310 6.8056 0.0908 -1.0548 1.1478 6.0623 0.0856 5.4235 0.0292 -0.4551 4.3901 0.3699 -1.5021 2.9640 0.3783 -0.9940 -4.8407 -1.4573 -3.2400 1.4594 2.5705 0.6899 -3.8239 -0.6978 -1.2445 1.7167 -0.3333 1.0000 -0.8315 -1.1929 0.7183 1.7921 4.7906 0.0069 -4.8868 -2.9552 -3.0427 -3.4168 0.4812 0.8161 0.1162 -2.3406 2.6870 2.7754 1.8840 1.0055 2.8295 0.4486 0.5117 -2.7902 -0.3068 -0.3162 0.1408 -2.1618 1.1769 -3.6101 -0.9007 -2.5892 1.5024 4.0154 1.0860 1.4976 -1.6639 0.7163 -2.0279 -1.5440 0.1298
0.4202 4.4523 5.9746 -3.8864 -5.1965 1.7890 -6.0377 -4.1536 1.1999 -4.3777 -0.4654 -4.0153 -2.6799 -2.1063 -4.7596 1.0018 1.1577 -4.1128 -0.7897 2.7849 -3.6075 7.5817 -0.9162 1.5157 3.5594 1.7301 2.8527 -1.7854 -3.0178 -0.0574 -0.1762 2.1730 2.9665 1.3720 -0.6043 -1.1467 -3.0361 0.7280 -1.5380 6.6175 -1.6598 0.7240 0.4453 3.0374 5.4488 5.8002 -0.6822 -0.0847 4.4989 -0.3898 0.6220 3.8437 0.8135 -0.0113 -3.9462 -2.8674 0.9653 1.8108 3.2353 2.1267 -3.5449 -2.0347 -1.2186 1.5274 1.5110 -0.2046 -0.9743 -0.0048 -2.3116 1.4343 2.9537 4.4228 -4.5728 -4.2372 0.8484 -3.5693 -1.6763 -3.6216 0.3280 1.9560 -3.0193 2.9119 2.2827 1.7196 2.5750 1.1746 0.7390 -2.7793 -1.5456 -2.3382 -0.1768 1.1158 -1.8577 -2.9584 -2.6724 -0.1466 0.8976 2.7112 3.1955 0.9784 0.5560 -1.0484 -2.3130 -0.1431 -2.0103
5.6090 5.1625 4.3031 -2.4682 -6.7682 -0.3464 -0.4332 -5.4036 -0.1578 -5.6061 -0.5435 -1.7140 -4.6144 -0.2477 -3.9621 -0.3575 2.6348 -2.9777 -2.2172 3.6104 -1.6648 3.0913 -2.9970 -1.5597 1.0760 1.4316 3.5187 -0.8152 -2.9211 -2.2371 1.8421 4.6522 4.2591 0.6339 -0.0801 -1.1375 -3.0788 -0.5196 0.0443 3.5665 -2.7386 -0.2127 4.4249 4.5050 4.9678 2.8451 -1.5289 0.3186 3.7889 -0.3530 0.4323 3.0512 0.9682 0.3932 -2.1301 -4.8924 -1.9080 2.2572 3.2029 2.3890 -3.0782 -2.7128 -1.7517 0.6569 1.4449 0.6166 -1.9497 0.5432 -1.6855 3.8640 3.5584 4.0596 -1.9057 -5.3758 -0.4924 -4.6476 -1.1164 -2.7293 -0.9511 2.7921 -1.5969 2.1136 1.7070 2.5919 1.8366 0.9630 1.3003 -3.2456 -1.3618 -2.2214 -1.1963 1.4771 -0.8800 -1.9126 -3.4102 -1.9882 2.6061 3.8988 3.6704 0.1205 0.8358 -0.5021 -2.7762 -0.4170 -1.1396
1.7821 4.6413 6.0110 -2.3479 -6.2062 -0.5316 -4.7029 -5.8323 0.0726 -5.3984 0.5390 -1.7140 -4.5571 -0.4461 -3.8224 0.2885 1.5197 -3.9951 -1.1316 3.3855 -3.2173 7.1012 -1.8534 0.6385 3.8351 1.3884 2.5431 -1.3284 -2.8382 -0.7402 0.2803 2.4881 3.1974 0.7501 -0.4019 -1.1239 -2.8495 0.6937 -0.0264 5.9299 -2.4020 -0.0217 1.3884 3.2578 5.5527 5.1856 -1.2777 -0.6997 4.0830 -0.7743 0.1999 3.5513 0.5334 -0.3347 -3.0545 -4.0321 0.4111 2.2963 3.2000 2.0957 -3.4852 -1.9709 -0.6851 1.3872 1.6268 -0.1949 -1.5998 0.6219 -1.9793 2.1876 2.9072 4.4227 -3.4571 -5.1840 -0.4796 -4.6807 -0.6359 -2.3319 -0.0914 2.3707 -2.8040 3.1406 2.0844 1.5222 2.4804 1.0852 0.5897 -3.3388 -0.9733 -1.7176 -0.5696 1.5701 -1.6036 -2.5101 -2.9092 -0.4214 1.4563 2.8125 3.2780 0.5772 0.8048 -0.9663 -2.5981 0.2070 -1.1237
1.2665 5.2640 -2.6512 -5.6620 -3.0596 -3.5200 -3.8457 -3.7837 -5.0067 -4.5259 -0.4995 1.6139 -3.2788 1.5601 1.0170 -0.0208 -2.9384 4.4442 -0.0533 -0.4639 4.4373 6.6881 -1.0197 -3.0370 2.4834 2.3252 2.9032 -1.5044 -1.3950 -2.7278 1.0422 5.0799 1.3904 1.9833 -2.2272 1.7743 -2.1720 -2.7963 0.2965 6.3332 -0.6722 -1.6728 1.5529 5.6168 -1.2125 4.8502 -0.3948 -1.6100 4.4652 0.0477 -0.2170 2.9695 0.2494 -0.1357 -3.6501 -1.6596 -3.7543 1.3179 2.7502 0.8442 -3.4209 -1.1154 -1.4439 1.2606 -0.0359 1.5818 -1.3088 -1.0268 1.5213 2.1014 4.4711 -0.5578 -4.1638 -3.0813 -3.7085 -3.8477 0.2622 0.5009 -0.5642 -1.7103 3.7558 2.5161 2.0881 1.5023 2.5394 0.5784 1.2799 -2.8069 -0.5209 -0.2760 -0.3131 -1.7597 2.2632 -2.7243 -1.3892 -2.6024 1.4802 4.2286 0.6285 1.0974 -1.3780 1.8508 -2.0847 -1.5941 0.5280
0.6197 5.7248 -0.9729 -4.9557 -2.4545 1.3613 -5.8866 -4.0016 -0.3153 -0.6086 1.9401 -1.9891 -2.9728 2.5451 -1.8126 -1.7822 -3.8052 0.5401 0.5066 -4.1388 1.3144 7.1215 -0.5846 2.7020 1.7907 1.1053 3.0881 -4.4608 -1.5645 -3.0580 0.9614 4.1574 2.6874 2.3792 -2.2698 -0.5264 -0.7900 -1.4050 -2.9268 6.8260 -0.0249 1.3962 1.2133 5.7171 0.4141 5.3902 -0.3330 1.0506 4.8534 0.7474 0.1383 3.3959 0.5412 -0.2104 -5.4954 -1.6309 -0.9001 1.1412 2.3257 1.1340 -3.5232 -0.3701 -1.2970 1.3769 -0.5533 0.6706 -0.9051 -1.2049 -0.6227 1.8940 4.4798 0.6107 -4.9864 -2.8102 -0.1047 -1.9487 1.4919 -1.4508 -0.4958 -3.0895 0.8871 2.2127 1.4752 1.7850 2.5501 0.2198 1.0051 -2.3695 0.1419 -2.0038 -0.0028 -2.2893 -0.3049 -4.4469 -1.2063 -1.8854 1.2968 3.7449 1.5855 1.3808 -1.7125 -0.0749 -1.2798 -0.9087 -1.9148
-1.5682 3.9257 2.4145 -3.6201 -4.7822 -1.0235 -5.3107 -4.4766 -2.7866 -2.4023 0.2635 3.2446 -3.5375 -1.8944 3.0427 -1.3522 -0.5470 -3.1872 1.0336 -0.0619 -3.3707 7.8974 -0.5404 -3.5883 4.1988 1.3308 2.3867 -5.0102 -0.5879 -1.3141 1.6343 2.6835 4.1715 1.3791 -1.2854 0.3186 -2.2377 1.5160 0.0678 6.5285 -0.0729 -3.4716 -0.1831 4.2351 2.9257 6.2979 0.4007 -2.0565 4.8193 0.3869 -1.7562 4.4979 1.3178 -0.6079 -5.2464 -2.9288 -0.8604 1.8409 1.3832 2.1669 -3.5624 -1.6183 0.1805 2.1432 0.7249 -0.5557 -1.1103 -0.4796 -0.2758 0.7596 3.4609 2.1849 -4.4129 -3.7637 -1.8067 -2.6108 -0.9286 2.3378 -0.0254 -0.6642 -2.4722 3.1613 1.6568 1.4697 3.3506 0.7888 0.2337 -3.1714 -0.4894 0.9949 -0.0561 0.0362 -1.1222 -4.6164 -1.5758 -0.7038 1.4141 2.5674 2.9738 1.2141 -0.2812 -0.3677 -2.1366 0.2999 0.2132
0.3846 6.1268 3.3436 -6.4208 -0.8629 -1.5986 -6.3040 0.5196 0.4326 -1.7687 -4.1872 -2.8623 -0.6193 -5.0831 -0.8518 0.8359 -1.3369 -3.9473 2.6299 0.0924 -3.1143 7.1256 0.9143 -2.0551 1.3456 0.1992 2.8298 -3.2940 -1.6216 1.6077 -1.5326 2.6133 2.9440 2.1618 -1.5258 0.4010 -1.9879 -0.8570 -1.7231 6.3182 2.0448 -1.6364 -0.3119 4.8570 3.7634 5.4921 1.6363 -0.4413 4.3094 2.5664 -0.3193 3.6133 2.4029 1.0097 -5.3829 -1.7710 0.4449 0.4164 2.0677 1.6576 -3.4090 -2.7713 -0.4109 2.1476 0.7347 -0.1172 0.0235 -1.8616 -1.1727 0.4451 3.7419 3.3027 -5.5875 -0.5255 -0.3865 -1.8130 -4.3157 -1.3599 1.7174 -1.0583 -2.7497 1.6748 1.4296 2.2075 2.7184 1.1847 1.1315 -1.9971 -3.0149 -0.6042 0.8896 -0.7467 -1.5105 -3.9149 -2.0219 0.6291 -0.3483 2.8132 2.7060 1.7964 -0.5907 -0.3063 -1.3537 -1.7926 -1.2439
2.1844 4.3726 4.7420 -3.7895 -5.8808 0.3298 -5.8050 -4.5590 0.8126 -5.0383 0.9274 -2.3253 -4.4990 -0.6405 -4.1647 1.2032 2.7397 -3.6757 1.3211 0.3726 -4.4018 6.8660 -0.1138 3.4501 1.0825 -0.5475 1.5080 -1.7110 -2.9698 -0.6150 -0.2413 2.0545 3.6525 0.8883 -0.9898 -1.4356 -2.4509 0.9317 -0.6780 7.1266 0.4439 2.1347 1.8476 2.9431 5.0937 5.9518 1.3001 1.7232 5.1349 0.5978 0.6619 3.9444 1.4454 0.2705 -3.6133 -3.4507 0.7538 1.2138 1.8374 1.7606 -3.6045 -1.6290 -0.7728 1.8506 1.0591 -0.9325 -1.2760 0.2259 -2.5520 2.0424 2.1269 3.9398 -4.4563 -4.5405 0.1342 -4.5711 -0.4651 -2.6696 0.4684 1.4241 -3.7323 1.9713 0.5559 1.4866 2.6956 0.5953 0.1521 -3.2926 -0.9210 -1.9950 -0.0769 1.0254 -2.3727 -2.8660 -2.6954 -0.3065 0.8996 1.9990 3.2136 0.9197 0.2334 -1.5417 -2.3203 0.1919 -1.6482
-1.3364 5.8055 1.9186 -6.1768 -0.6634 -1.9985 -6.4516 1.1917 -0.4019 -1.9857 -4.5894 -1.7172 -1.1876 -4.8862 0.6144 2.2730 -3.1769 -1.7658 0.9786 -2.0503 -3.5514 8.5170 2.2197 -1.8027 2.6765 2.2411 2.8198 -3.5879 -0.6871 1.6419 -0.9011 2.0050 3.4615 1.8999 -1.2638 0.9482 -1.9994 -1.1082 -1.7476 7.1630 1.7342 -1.9979 -1.4817 4.3655 2.3405 6.2918 2.2775 -0.8908 4.9666 1.5553 -0.8842 3.9603 2.2991 -0.0350 -5.6028 -0.9866 0.3815 0.6763 1.5559 1.7181 -3.6987 -2.3416 0.0084 2.2279 0.6142 -0.3739 -0.1590 -1.9844 -0.6429 -0.2738 3.6841 2.0136 -5.6073 -0.0036 -0.7663 -2.2162 -4.2287 -0.2703 1.7150 -1.8590 -2.2489 2.0535 2.1673 1.5445 2.9630 1.3630 0.6235 -2.3144 -2.7458 0.0209 0.8534 -1.1363 -1.2297 -4.1855 -1.2953 0.7609 -0.2571 2.4187 2.5064 1.7145 -0.6393 -0.0927 -1.5072 -1.8518 -0.9049
-0.3180 4.7851 -2.9378 -4.0509 0.5904 -4.5752 -5.4855 -1.2854 -3.8823 -3.9541 -2.4367 1.9320 -3.4866 -0.0091 2.0881 0.0416 -0.9484 4.5845 -0.4702 -3.3686 4.5605 6.6058 0.7178 -3.6416 1.9410 2.4155 2.3091 -1.2830 -0.2987 -2.2269 -0.4097 3.8558 1.0056 2.7441 -2.3735 1.8432 -1.0005 -3.2821 0.1670 6.1055 1.2069 -2.3700 -0.2339 4.9838 -1.4456 5.0030 0.2905 -1.8997 4.4516 0.7959 -0.5898 3.2225 0.0017 -0.2158 -3.0742 -1.3540 -3.4132 0.9384 2.0669 0.1318 -2.7802 -1.6604 -1.0793 1.5634 -0.4044 1.5295 -0.7415 -1.7587 1.8985 0.8072 4.1601 -0.9238 -4.2826 -0.4535 -3.5112 -3.6149 -1.1879 1.1553 0.4282 -2.2892 4.0055 2.1705 1.9140 1.0041 2.6402 0.4678 1.1039 -2.3969 -1.2963 0.2611 0.4420 -2.3260 2.4912 -2.2811 -1.0106 -2.1879 0.3677 3.4525 0.1509 1.7113 -1.7131 1.9332 -1.3203 -2.2480 0.7453
-1.0991 5.0761 -2.1512 -3.3569 -2.0204 -4.0161 -1.6414 -0.7964 -5.2762 -4.4027 -1.8556 2.3037 -4.9351 0.2849 1.2360 1.4034 -2.6466 4.6080 0.0147 -0.5999 4.5803 5.7688 -1.2470 -4.0955 2.3561 2.3030 2.1885 -0.8814 0.3273 -1.2480 0.1174 4.3549 1.3104 2.1591 -2.4668 1.5363 -1.7570 -3.0226 0.3894 5.6407 -0.7047 -2.7550 -0.0301 5.4288 -1.1455 4.2064 -0.8490 -2.3051 4.0306 -0.2399 -0.9332 2.5607 -0.1581 -0.5894 -2.3938 0.0510 -3.0812 0.8208 2.2733 0.3254 -2.8606 -0.8433 -0.9242 1.2537 -0.3388 1.4744 -1.1892 -1.5156 2.0662 0.7756 4.2746 -0.8960 -2.1006 -1.1908 -3.8935 -4.2845 -1.0629 1.0233 0.1439 -2.0137 4.0661 2.1814 1.8561 0.8519 2.3615 0.3412 0.8298 -2.8651 -0.8647 0.5224 0.0198 -2.1352 2.5581 -1.9402 -0.1313 -1.6617 0.5562 3.7504 0.3409 1.2569 -1.6750 1.8047 -1.8902 -1.9434 0.9558
-3.0538 2.3017 0.2310 -6.6317 0.8575 0.2831 -6.9025 -0.5558 2.2833 -1.9441 -2.7646 -3.5842 -1.3181 -4.4819 -1.9093 2.4118 -2.5610 -2.4656 1.2962 -0.9135 -3.9460 8.9830 1.6762 0.0291 2.5468 2.0120 3.2661 -3.3314 -1.2683 1.3833 -0.7343 2.1949 3.6227 2.0753 -1.3449 0.6157 -1.7025 0.0091 -1.5149 7.6705 1.4608 -0.5505 -2.4102 2.6994 1.5348 6.6316 2.0991 0.3408 5.2603 1.6523 -0.1021 4.1788 2.2861 0.7442 -5.5266 -1.3526 0.4009 0.7212 1.1767 2.0104 -3.5810 -1.8331 -0.8569 2.4737 0.8031 -0.1712 0.0044 -1.5119 -1.1487 -0.9940 2.6432 1.3802 -5.9507 -0.1364 1.1905 -2.2419 -3.3299 -2.2170 1.9653 -1.1263 -2.6116 2.0154 1.9678 1.9467 3.0571 1.3085 1.0513 -2.2408 -2.3195 -1.0883 1.0969 -0.6265 -1.4751 -4.0297 -1.4700 0.3957 -0.4095 2.0479 2.4530 1.9296 -0.4665 -0.2294 -1.3150 -1.1337 -1.2920
-2.6054 2.6085 1.8314 -6.1653 -3.5084 1.4760 -5.6981 -1.3010 2.4639 -3.6212 0.3142 -3.6207 -4.5221 -1.9155 -3.1672 1.3791 -0.8285 -4.2112 0.4525 1.4451 -4.5433 9.1870 1.6025 1.4656 3.0884 0.1791 2.7734 -2.0159 -3.1625 0.1569 0.0922 0.7163 3.9447 1.5159 -1.2519 -0.8938 -1.9341 1.0861 -0.8256 8.0306 0.7325 1.3644 -1.5758 2.6093 2.9334 6.8554 1.5489 0.8829 5.6088 0.6986 0.8999 4.4338 1.4824 0.3623 -3.8390 -2.6704 1.6179 0.9889 0.4975 1.7292 -3.2901 -1.2772 -0.2690 2.3457 0.9082 -0.7135 -0.6579 -0.2813 -2.2043 -0.2945 2.3471 2.3644 -5.2840 -2.2872 1.3991 -3.9808 -0.6599 -2.5219 1.1993 0.5401 -3.5956 2.4389 0.9384 1.7574 3.1664 0.6579 0.4500 -2.8223 -1.0252 -1.6127 0.5454 0.5187 -2.2271 -2.9661 -2.4275 0.4148 0.2178 1.1731 2.8166 1.5065 -0.0682 -1.2197 -1.7804 0.0604 -1.4786
-0.4750 4.1095 4.4814 -5.7288 -0.6360 1.3929 -4.2261 -1.3851 3.1946 -2.2381 -2.5234 -4.6040 -4.2222 -3.4260 -3.5267 -0.0752 0.9082 -4.9720 2.0101 1.6050 -3.9093 7.4255 3.6121 2.7921 1.6629 -1.0020 1.5784 -2.1438 -3.3154 0.5140 -0.5709 0.4831 3.4144 1.6742 -1.4346 -1.4671 -2.2023 0.0499 -1.2151 6.8887 2.9157 1.6368 0.0388 2.7196 4.7655 5.5718 2.2855 2.0212 5.1051 1.3473 0.9323 3.7498 1.7858 0.4257 -4.3792 -2.6800 1.0970 0.7906 1.2327 1.5863 -3.4968 -2.2795 -1.0657 1.9859 0.7990 -0.9265 -0.6351 -0.8137 -2.6792 0.8405 2.2924 3.6660 -4.4057 -1.2941 1.6998 -3.2298 -2.2803 -3.4887 0.9687 0.5091 -3.9520 2.0302 0.3663 1.5091 2.8275 0.5995 0.2372 -2.5280 -2.1824 -2.1390 0.3432 0.2577 -2.5854 -3.2027 -2.7997 0.1739 0.2636 1.2672 2.9838 1.3955 -0.2476 -1.6124 -1.8130 -0.8459 -1.9595
-1.7053 4.5869 -1.7344 -3.4142 -1.0788 -4.0546 -1.7366 0.6752 -4.4703 -3.8863 -2.9113 2.3056 -4.9300 -0.6960 2.2063 -0.3453 -3.8020 3.6791 2.0309 -3.7510 3.1217 7.2179 0.6832 -1.2126 2.5537 1.9302 2.0477 -1.9387 1.3079 -0.4859 0.5641 4.3876 1.4826 2.3253 -2.6028 0.1915 -1.7908 -2.9187 -0.3287 6.0236 0.5990 -2.0305 -0.5432 5.0979 -0.9198 4.8295 0.3788 -1.1327 3.5759 0.3465 -1.9732 2.2850 0.1526 -1.2056 -3.1724 0.7917 -2.4645 0.6835 2.1659 0.5848 -3.2996 -0.5754 -0.5222 1.5004 -0.5939 0.9937 -0.8258 -1.8579 1.4969 0.4127 4.0454 -0.7906 -2.4348 -0.1319 -3.4054 -4.1801 -1.7353 1.4057 0.7362 -2.9729 3.0195 2.1386 1.7643 0.6985 2.3861 0.3182 0.2959 -2.9532 -1.1035 0.7788 0.3699 -2.6687 1.5756 -2.7148 0.5505 -1.0571 0.5513 3.6545 0.5032 1.5001 -1.9634 0.8423 -1.8136 -2.0728 0.5585
1.1378 4.1822 4.6337 -4.8571 -0.8556 2.8165 -2.4636 -1.3651 2.6036 -3.3513 -1.5667 -4.7886 -3.9186 -3.7387 -3.8063 -0.0419 0.4430 -5.1047 2.0014 1.2361 -4.0304 7.0781 3.0995 3.5326 1.3295 -0.8639 1.5965 -2.2978 -3.5978 0.0546 -1.0527 1.4214 3.2531 1.5341 -1.5236 -1.3366 -2.6050 0.3415 -2.1311 6.7174 2.1894 2.4604 0.6347 2.7772 4.8567 5.2910 2.4649 2.0454 4.8607 1.4524 1.0088 3.5345 1.8474 0.3998 -4.1291 -2.5213 1.1600 0.6463 1.4380 1.5623 -3.5972 -2.0654 -1.1129 1.8267 0.7484 -0.9530 -0.7506 -0.9678 -2.6395 1.1197 1.9458 3.8065 -3.7618 -1.2239 1.8457 -3.7770 -2.2611 -3.5177 0.9462 0.1536 -3.9963 1.8042 0.4658 1.5014 2.6377 0.6349 0.2444 -2.8367 -2.0620 -2.3438 0.2610 0.0756 -2.6380 -3.2212 -2.7925 -0.0063 0.1224 1.5860 2.9552 1.2626 -0.3510 -1.5798 -2.0843 -0.7469 -2.3522
-2.6622 1.2377 2.1854 -6.7677 -1.9112 0.6840 -6.0806 -1.3315 2.9721 -3.1753 -1.9820 -3.7442 -1.4133 -3.6348 -3.1764 1.1426 -0.3173 -4.4849 -0.5611 1.4677 -4.3488 7.9482 3.9689 2.5884 3.6446 0.6737 2.3086 -2.3188 -1.8280 1.5405 0.7834 -0.2938 3.7646 2.0378 -0.9180 -1.2793 -2.3905 0.2827 -1.1699 7.4888 3.0311 1.5800 -1.5336 0.9721 3.1495 6.0405 3.3238 1.2654 5.4889 2.2687 0.3330 4.0464 2.5746 -0.0128 -4.5700 -2.6445 1.5253 1.4770 0.1819 1.5206 -3.4065 -2.1481 -0.4881 2.1497 1.3761 -0.9509 -0.5122 -0.6956 -2.1106 -0.3012 1.3176 2.5253 -5.5956 -1.5338 1.5579 -2.5960 -2.8552 -2.6582 0.6295 0.8426 -3.6637 2.6106 1.1857 1.4731 3.1843 1.3289 0.0671 -2.2597 -2.1361 -1.3668 0.3123 0.4889 -2.2213 -3.3023 -2.1555 0.8858 0.6369 0.3584 2.7398 1.5895 0.2124 -1.4570 -1.7644 -0.7078 -1.5338
-2.8646 1.9559 1.5959 -6.6705 -1.4351 1.2095 -5.1771 -0.4491 2.9020 -3.2345 -0.6340 -3.7771 -4.1610 -2.7313 -2.9366 1.7283 -1.6516 -3.9654 0.7250 0.4835 -4.7192 8.8949 2.7588 1.8545 3.0643 0.7349 2.8418 -3.4202 -3.8406 0.0083 -0.0070 1.1532 3.8103 1.9454 -1.4480 -0.7092 -1.7672 0.7380 -1.1409 7.8444 1.7583 1.8692 -1.8233 2.6370 2.4499 6.6954 2.2531 1.0236 5.6159 1.2010 0.9571 4.3756 1.7797 0.3165 -4.4330 -2.4182 1.6346 0.9999 0.6026 1.6985 -3.0601 -1.5574 -0.1531 2.4353 0.8219 -0.7481 -0.3505 -0.8490 -2.0816 -0.5315 2.3552 1.9147 -5.2336 -1.1388 1.5608 -3.6561 -1.3664 -2.5234 1.4781 -0.2051 -3.6101 2.3815 1.2214 1.6903 3.2068 0.8319 0.4728 -2.5422 -1.5258 -1.5030 0.8028 -0.0003 -2.2681 -3.6105 -2.6923 0.4024 0.1058 1.3790 2.6135 1.7769 -0.3202 -1.1632 -1.5333 -0.4020 -1.5274
-2.9065 1.5700 1.4867 -6.9317 -0.9040 0.2444 -6.5255 -0.7616 2.6644 -2.8098 -2.2903 -3.6828 -1.6025 -4.1657 -2.5940 0.0322 -0.0898 -4.5360 2.1687 0.8730 -3.8645 8.5252 4.2650 1.2084 3.3404 0.8280 2.7113 -2.8107 -2.0053 1.7144 0.2024 0.4940 3.8816 2.1295 -1.3555 -0.6612 -2.0922 0.1665 -1.2526 7.7405 3.0449 1.2687 -1.9370 1.5869 2.6410 6.3794 3.3004 0.6623 5.5277 2.0535 0.7587 4.1716 2.2783 0.1215 -5.1499 -2.2686 1.2682 1.2417 0.3929 1.7236 -3.5688 -1.9599 -0.4817 2.3473 0.9531 -0.7814 -0.2865 -1.1681 -1.8118 -0.6148 1.7564 2.1367 -5.8697 -0.9391 1.3168 -2.6261 -3.0748 -2.4074 1.1628 -0.2097 -3.5384 2.4785 1.2687 1.6660 3.2396 1.0997 0.3532 -2.3300 -2.2500 -1.1705 0.6479 -0.0948 -2.1100 -3.7120 -2.0623 0.8848 0.2443 0.8796 2.7213 1.7858 -0.2695 -1.1211 -1.5919 -0.9419 -1.4206
-2.4197 2.9817 2.9768 -5.3548 -0.2827 1.6305 -4.4961 -1.4476 3.6182 -3.7708 -0.6695 -3.7453 -2.5197 -2.7681 -4.1754 -0.2691 1.2166 -4.6335 1.8619 1.8945 -3.6640 8.7051 2.9118 1.4905 3.0715 -0.1822 2.4924 -2.1917 -3.2340 0.7384 -0.1029 -0.3882 3.7054 1.5522 -1.2308 -1.1593 -2.1538 0.2071 -0.7384 7.7339 1.8344 1.4187 -1.8807 1.5733 2.9618 6.4475 2.3705 0.8316 5.3957 1.2824 0.8090 4.0687 1.8243 0.3191 -4.3848 -2.5426 1.4128 0.9116 0.0792 1.5814 -3.5685 -2.1236 -0.7722 2.0576 1.0006 -0.7705 -0.7152 -0.5702 -2.3821 -0.4892 1.6195 2.6531 -4.2891 -1.2218 2.1411 -3.3283 -1.9909 -3.1691 0.8307 0.7892 -3.6854 2.2972 0.6855 1.6708 2.9899 0.7542 0.3135 -2.6143 -1.9137 -1.8353 0.2753 0.4923 -2.2989 -3.2424 -2.6738 0.4485 0.0673 0.3874 2.7747 1.3646 -0.0363 -1.3785 -1.8396 -0.6288 -1.5807
-2.7790 2.8193 1.7500 -3.9217 -0.7835 2.8040 -2.5000 -2.6727 3.4839 -4.5677 1.4102 -2.2760 -4.1793 -0.2494 -4.0787 0.1192 1.4625 -4.6096 2.3272 1.4823 -3.5655 8.9506 0.5731 0.6676 2.6383 -0.4426 2.8564 -2.1660 -3.0860 -0.6001 -0.3886 0.2085 3.9485 1.2092 -1.4119 -1.2614 -2.0169 1.1438 -0.7169 7.7222 -0.1528 0.9333 -2.0131 2.0936 2.8281 6.5589 0.6482 0.4021 5.2650 -0.0774 0.6845 4.1121 0.8983 0.6203 -3.6047 -2.6932 1.2736 0.5745 -0.0480 1.7687 -3.5903 -1.2453 -0.6075 2.0457 0.6467 -0.5789 -0.9012 -0.0736 -2.3481 -0.6931 1.8388 2.3514 -2.9436 -1.8245 2.3191 -4.3095 -0.0417 -2.5910 1.0169 0.7293 -3.6355 2.0260 0.3745 1.8663 2.7857 0.1703 0.5660 -3.1494 -0.6675 -1.8512 0.3656 0.6273 -2.2643 -3.0205 -2.3817 -0.0731 -0.2182 0.6561 2.8225 1.2331 -0.1866 -1.3264 -1.9875 0.2555 -1.5618

>  <OB_ATOM_TYPES> (1aptA1)
C.3 C.3 C.3 C.3 C.3 C.3 C.3 N.3 O.3 O.2 O.2 O.2 O.2 C.3 C.3 C.3 C.3 C.3 C.3 C.3 N.am N.am N.am O.3 C.3 C.3 C.3 C.3 C.3 C.3 C.3 C.2 C.2 C.2 C.2

>  <ENSEMBLE_RMSD> (1aptA1)
0.000 2.297 2.574 2.741 2.801 2.837 2.842 2.847 2.949 2.950 2.979 3.004 3.008 3.046 3.103 3.107 3.158 3.159 3.185 3.200 3.282 3.313 3.461 3.466 3.474 3.481 3.489 3.498 3.506 3.611 3.632 3.713 3.792 3.993 3.995 4.046 4.135 4.279 4.394 4.397 4.397 4.490 4.498 4.523 4.536 4.545 4.687

$$$$
