
 OpenBabel03071213D

 20 19  0  0  0  0  0  0  0  0999 V2000
   47.4520    1.4380   43.0780 N   0  0  0  0  0
   46.9100   -5.1340   36.1510 O   0  0  0  0  0
   45.2970    2.8500   43.1900 O   0  0  0  0  0
   46.4890   -6.0620   34.2100 O   0  0  0  0  0
   44.9940    2.9620   41.0170 O   0  0  0  0  0
   44.9280   -2.2760   40.7660 O   0  0  0  0  0
   44.5190   -2.3740   36.1180 O   0  0  0  0  0
   41.4370   -2.5560   40.0500 S   0  0  0  0  0
   46.0940    0.1000   41.5030 C   0  0  0  0  0
   45.4430   -0.0240   40.1300 C   0  0  0  0  0
   44.6760   -5.0120   35.3190 C   0  0  0  0  0
   44.2720   -4.5580   36.6350 N   0  0  0  0  0
   44.3350   -1.6100   38.6980 N   0  0  0  0  0
   42.2060   -2.8090   38.3830 C   0  0  0  0  0
   46.6780    1.4790   41.8140 C   0  0  0  0  0
   43.7490   -2.8930   38.3330 C   0  0  0  0  0
   46.1290   -5.4290   35.2210 C   0  0  0  0  0
   45.5570    2.4960   42.0210 C   0  0  0  0  0
   44.8740   -1.4020   39.8910 C   0  0  0  0  0
   44.2110   -3.2600   36.9220 C   0  0  0  0  0
  1 15  1  0  0  0
  2 17  1  0  0  0
  3 18  1  0  0  0
  4 17  2  0  0  0
  5 18  2  0  0  0
  6 19  2  0  0  0
  7 20  2  0  0  0
  8 14  2  0  0  0
  9 10  1  0  0  0
  9 15  1  0  0  0
 10 19  1  0  0  0
 11 12  1  0  0  0
 11 17  1  0  0  0
 12 20  1  0  0  0
 13 16  1  0  0  0
 13 19  1  0  0  0
 14 16  1  0  0  0
 15 18  1  0  0  0
 16 20  1  0  0  0
M  END
>  <MOLID> (1aqwC1)
1aqwC1

>  <SMILES_CANONICAL> (1aqwC1)
S=C[C@@H](C(=O)NCC(=O)O)NC(=O)CC[C@@H](C(=O)O)N	

>  <FINGERPRINT> (1aqwC1)
0000000000000011000000000000000000000001000000000110000000000000000000000001000000000000000000000010010000000000000001000000000000000000000010000000000010000000000000000000000000000000000000000000000000000000000000000000000000100000000000000000000000001000000000000010000000000000000000000010000000000010000000001000000000000000001000000000000000000000010000000000001100110000000000000000011000000000100000000011001000000101000000000010000000000001100000000001100000000000000000000000000000001000000000000010100000010000000000000010000000000000000000000000000000000000000000000000000001000000000000000000000000000000100000000000011100000001000000000000000000110000000000000011000000000000000011100000000000000011000000000000000000000001000000100001000000000000000110000000000000000000000000000000000000000000000000000000000000000100000000000000000000000000000000000001000000000000000000000000000000001000000000000000000000000000000000000000010000000000000000010010000000000000010000000000000000000000000000010000001000001000

>  <MACCS166> (1aqwC1)
000000000000000000000000000000000000000000000000000001000000000000000000100000100001000101110010000000010000011000001100001000000011000101110100011000101111111010010000

>  <OB_MW> (1aqwC1)
305.068

>  <OB_logP> (1aqwC1)
-0.6541

>  <OB_PSA> (1aqwC1)
190.91

>  <OB_MR> (1aqwC1)
70.2294

>  <OB_ATOMIC_CHARGES> (1aqwC1)
-0.1208074578 -0.2436670761 -0.2440506964 -0.2436670761 -0.2440506964 -0.2733200668 -0.2710824768 -0.0528664857 0.0402178135 0.0889117801 0.2285005021 -0.1914200498 -0.1926323626 0.0465140876 0.1948209834 0.2015051328 0.3865377169 0.3818721033 0.2421372763 0.2665470486

>  <MCT_HBD> (1aqwC1)
5

>  <MCT_HBA> (1aqwC1)
9

>  <ENSEMBLE_TOTAL> (1aqwC1)
50

>  <ENSEMBLE_COORDS> (1aqwC1)
2.0649 2.7290 3.8239 1.6638 -1.9196 -3.9585 -0.4302 3.9926 3.7770 1.5907 -4.1303 -4.4677 0.3421 4.8266 1.8064 1.3382 0.2003 -0.4349 -1.7305 -3.0494 -0.6473 -3.6044 1.0035 -0.2704 0.3717 1.5191 2.5362 1.1263 0.3534 1.9404 0.1830 -3.3141 -2.7053 -0.3145 -2.0621 -2.1979 -0.6080 -0.5587 0.5773 -2.8207 -0.4575 -0.0987 1.2415 2.7520 2.6261 -1.4252 -0.6561 -0.6138 1.1991 -3.1784 -3.8039 0.3669 3.9704 2.6802 0.6363 0.0353 0.5584 -1.1909 -2.0561 -1.1274
2.2946 3.5166 3.9398 -1.0070 -3.7255 -3.8464 -0.2633 4.6621 3.4362 0.8663 -3.9251 -5.1127 0.6596 4.8862 1.3686 -1.2828 1.1224 1.3203 0.9141 -2.7165 -1.0247 -3.4325 -1.9690 -0.4750 0.6062 1.9465 3.1798 0.9225 0.8003 2.2476 0.5830 -1.9359 -3.7964 -0.2045 -1.5125 -2.6678 -0.0270 -0.7385 0.7246 -1.8857 -2.0187 0.1486 1.4552 3.1406 2.8167 -0.8157 -1.1349 -0.4168 0.1840 -3.2910 -4.3178 0.5999 4.3163 2.4500 -0.2616 0.4476 1.3930 0.0946 -1.8711 -1.3678
0.2559 3.1088 4.3784 1.7524 -1.9612 -2.8748 0.1183 4.3643 1.8451 1.5533 -3.1772 -4.7807 2.3800 4.2420 2.0681 0.6103 0.7899 -0.6806 -0.4166 -3.1655 -0.6532 -4.0674 -0.6386 0.7375 0.1788 1.5971 2.5026 1.0553 0.6915 1.6706 -0.4284 -2.7265 -3.4990 -0.8315 -1.7897 -2.4821 -0.6083 -0.6688 0.6536 -2.7292 -1.5903 0.4464 1.0009 2.6395 3.2214 -1.5722 -1.0676 -0.3479 1.0429 -2.6403 -3.8059 1.2614 3.8229 2.3338 0.3285 0.3140 0.4140 -0.8846 -2.1443 -1.1473
2.7070 3.0376 2.2734 1.8170 -1.9407 -2.8489 0.4823 4.8757 2.7571 1.9843 -3.9292 -3.9312 0.9441 4.0540 4.8282 0.4655 0.9156 -0.7974 -0.6952 -3.0435 -0.4347 -4.4913 -1.1140 -1.1569 0.4394 2.2359 1.8762 0.6191 0.7643 1.5895 -0.1929 -3.1781 -3.2557 -0.7686 -2.0679 -2.5437 -1.0684 -0.3716 0.3889 -3.1357 -1.2308 -0.1911 1.4407 2.7041 2.9037 -1.7830 -0.9072 -0.7463 1.3025 -3.0710 -3.3854 0.9450 3.9298 3.6108 0.0141 0.4709 0.2520 -1.0260 -2.1339 -1.1885
1.2438 3.1603 4.5805 -0.9511 -4.0426 -3.8258 -0.1362 5.1878 3.0253 0.8021 -3.9336 -5.2633 1.9784 5.3297 2.1995 -1.6599 0.8603 1.1558 1.2064 -2.4746 -1.2398 -2.9949 -2.8764 0.1330 0.0884 2.4323 2.5838 0.6372 1.3112 1.7375 0.2849 -1.9969 -3.9421 -0.4206 -1.7223 -2.7191 0.0254 -0.5900 0.4879 -1.4103 -2.4331 0.4106 1.2314 3.2463 3.1319 -0.7785 -1.3616 -0.4220 0.0943 -3.4140 -4.4103 1.0914 4.6869 2.7445 -0.4789 0.5349 1.1069 0.1468 -1.9047 -1.4748
1.8389 2.4893 4.1072 -0.0098 -4.5046 -3.1172 2.0126 4.0378 1.6331 1.6732 -3.7936 -4.4719 0.6221 5.2858 2.9328 -2.6137 0.7431 1.0885 1.1386 -1.0072 -1.6384 -2.0648 -3.2169 0.8567 0.4035 1.8112 2.2924 -0.7404 2.1943 1.3796 -0.1041 -2.2678 -3.9224 -0.7156 -1.9666 -2.6522 -0.5786 0.1784 0.1194 -0.8512 -2.0997 0.6009 0.7197 2.9075 3.2805 -0.9895 -1.0686 -0.4804 0.6340 -3.5763 -3.8635 1.1016 4.2033 2.6229 -1.4276 0.9649 0.8672 -0.0490 -1.3142 -1.6352
2.6173 3.8815 2.3142 -0.8459 -3.9608 -3.6335 -0.2240 4.0121 1.7070 1.0751 -4.2031 -4.8192 -0.1796 4.2551 3.9691 -1.5619 1.2445 1.4095 1.2600 -2.0514 -0.8898 -3.5296 -1.2655 -0.4491 1.4797 1.7787 2.0572 0.4599 0.8119 2.6145 0.6722 -2.1108 -3.7061 -0.1799 -1.6139 -2.6551 -0.2024 -0.5403 0.7835 -1.9590 -1.7316 -0.1335 1.5909 3.0304 2.8932 -0.8088 -0.8380 -0.4957 0.3445 -3.5255 -4.1068 0.3184 3.8291 2.9356 -0.5531 0.5596 1.5389 0.2261 -1.5622 -1.3339
1.2370 2.5765 4.4163 -0.6472 -2.9069 -4.8943 -0.9961 4.1357 3.8074 0.6685 -4.7594 -4.8761 0.5730 5.5080 2.8929 1.2727 0.9479 -0.8757 0.4782 -2.8478 -0.1431 -3.5412 -0.2370 -0.1813 0.3668 2.1766 2.1708 1.3829 1.2888 1.4899 0.5737 -3.4079 -2.9014 -0.2600 -2.4040 -2.2957 -0.1408 -0.2640 0.5054 -2.2127 -1.2060 0.1011 1.0499 3.1578 3.0969 -0.8988 -0.9023 -0.5498 0.2007 -3.7804 -4.3069 0.2127 4.3939 3.2487 0.8247 0.6814 0.2353 -0.1440 -2.1510 -0.9404
1.4419 2.4658 4.4761 -1.1606 -3.9687 -4.2797 1.7787 4.7589 2.7732 0.8680 -4.6056 -5.0772 -0.3672 5.0245 3.4818 -1.9183 1.5148 0.3064 1.5187 -1.8508 -0.8474 -2.8563 -2.5025 0.2686 0.9903 2.0358 2.1433 0.2247 2.3943 0.8885 0.7941 -2.9703 -3.3292 -0.1267 -2.3926 -2.3873 -0.0691 0.1265 0.1342 -1.3800 -1.7702 0.5349 0.5571 2.8049 3.3721 -0.7198 -0.9735 -0.5540 0.1898 -3.9372 -4.3064 0.5851 4.3007 3.2217 -0.7147 1.3074 0.4364 0.3641 -1.7622 -1.2560
1.0789 2.3878 4.5838 -0.2257 -2.6556 -4.8726 2.1492 4.3298 2.7289 1.1033 -4.4962 -4.9120 0.0291 5.0887 3.0601 -1.6296 1.7663 -0.0113 0.5520 -2.8152 -0.0716 -3.5792 -1.8503 -0.0568 0.9481 1.7495 2.2626 0.5698 2.1230 0.8467 0.9187 -3.2548 -2.8626 -0.0036 -2.3191 -2.2695 -0.2048 -0.0560 0.2119 -2.0363 -1.4729 0.4499 0.4776 2.7375 3.3063 -0.9946 -1.0180 -0.5311 0.6087 -3.5553 -4.3036 0.8365 4.1692 3.0234 -0.5537 1.2754 0.3187 -0.0443 -2.1337 -0.9011
-0.2253 4.0777 2.1057 1.5811 -2.3825 -3.5844 0.4794 2.8131 4.6364 1.4313 -4.5039 -4.3759 2.1034 4.3786 4.3385 -1.0928 1.9404 -0.3543 0.0192 -2.9828 -0.4600 -3.8848 -1.2645 -0.0703 0.9616 1.9492 2.0416 1.1138 1.7264 0.5522 -0.4661 -3.5743 -3.2312 -0.8041 -2.3562 -2.5407 -0.1970 -0.1788 -0.0167 -2.2721 -1.1807 0.3471 1.0351 3.4165 2.4041 -1.2293 -0.9266 -0.6991 0.9316 -3.5511 -3.7912 1.2824 3.5979 3.8755 -0.1838 1.2008 0.0091 -0.5838 -2.1991 -1.1863
2.8299 2.3483 1.8328 0.2288 -3.9454 -3.1932 1.5200 3.5024 4.0785 2.3541 -3.4232 -3.7981 0.8144 4.9395 2.4605 -1.2341 1.7469 -0.4533 0.5273 -2.0519 -0.2482 -4.0521 -2.4903 -0.5682 0.6021 1.4891 2.2349 -0.8615 1.6916 1.9095 0.8934 -1.6489 -3.0972 -0.3285 -1.5284 -2.3433 -1.4167 -0.2690 0.6921 -2.5484 -2.1946 0.0890 1.4201 2.6968 1.8437 -1.6868 -1.0998 -0.4562 1.2507 -3.0809 -3.3928 1.2247 3.8375 2.7988 -1.1773 1.0833 0.5765 -0.3601 -1.6030 -0.9658
0.7868 4.7560 2.2757 1.7798 -2.6900 -3.1401 1.8645 3.2518 4.4331 1.3647 -4.6377 -4.2287 -0.2933 2.5305 4.5280 -0.2584 1.9560 -0.3675 -0.4836 -3.0116 -0.4804 -3.8581 -0.1494 -1.0613 1.6018 2.5669 1.6340 1.1662 1.1369 1.4044 -0.4960 -3.4086 -3.3338 -0.7145 -2.1675 -2.6357 -0.3030 -0.2895 0.2296 -2.5463 -0.7220 -0.2047 0.5750 3.3295 2.4375 -1.1844 -0.7215 -0.8269 0.9614 -3.6519 -3.6247 0.6453 3.0000 3.8982 0.1331 1.0186 0.3187 -0.7411 -2.0965 -1.2553
3.1599 2.6964 1.9509 1.8987 -1.4118 -2.6963 0.5724 3.6605 1.0259 2.1335 -3.0296 -4.2679 0.5995 4.2944 3.2106 -1.7420 1.4512 1.2703 -0.1317 -2.8969 -0.4970 -4.2565 -0.9926 -0.9725 1.3554 1.0997 1.8975 0.0907 0.6129 2.5629 -0.0520 -2.6387 -3.3496 -0.6785 -1.7287 -2.4258 -1.0029 -0.7262 0.9344 -2.9426 -1.4925 -0.0773 1.8719 2.3655 2.5393 -1.5757 -0.9590 -0.3712 1.4255 -2.3905 -3.5004 0.9624 3.5406 2.3178 -0.9784 0.5232 1.5158 -0.7097 -1.9778 -1.0673
1.7499 1.8060 2.2016 0.9141 -4.3105 -2.2072 0.4505 2.8543 4.5078 1.3028 -4.4809 -4.4360 1.4542 4.7436 3.7295 -2.4305 1.4843 -0.7561 1.1616 -1.0699 -1.6925 -1.8604 -1.9478 1.9521 -0.5129 2.6251 1.8079 -0.6844 2.7271 0.3073 -0.1154 -2.7031 -3.6573 -0.6986 -2.2476 -2.4209 -0.4771 0.3969 -0.1283 -0.6547 -1.7212 0.8205 0.9065 2.9888 2.1799 -0.9070 -0.9473 -0.4400 0.7627 -3.9171 -3.4926 0.9755 3.6347 3.5314 -1.3206 1.4804 -0.2338 -0.0162 -1.3958 -1.5733
-0.5236 1.4871 2.9028 1.5333 -2.1303 -3.2042 1.4080 3.5843 4.4126 1.5230 -4.2452 -4.0322 -0.3661 4.4344 3.2573 0.8407 0.9401 -1.7459 -0.1540 -2.7813 -0.0629 -3.5825 0.3264 0.5693 0.7033 2.6331 1.1419 1.5520 1.5927 0.4424 -0.4143 -3.4757 -2.8440 -0.8656 -2.2619 -2.2179 -0.1607 -0.0105 0.1283 -2.3124 -0.7546 0.5503 0.6358 2.3145 2.6183 -1.2626 -0.6813 -0.5155 0.9654 -3.3378 -3.4278 0.4766 3.5659 3.4260 0.7048 0.8323 -0.5323 -0.7010 -2.0323 -0.8665
1.9643 3.2533 3.3833 0.4877 -2.2883 -4.7232 -0.4977 4.1661 1.4032 0.9501 -4.5059 -4.5716 -0.9278 3.8946 3.6254 1.8967 0.0367 0.2474 -0.9052 -2.7544 -0.0775 -2.7076 1.5571 -1.0744 0.4535 1.3655 3.1279 1.2024 0.1943 2.5290 0.2830 -3.3400 -2.5865 -0.2945 -2.0781 -2.2080 -0.3538 -0.2038 0.7567 -2.2540 0.0450 -0.5331 0.9003 2.6968 2.5647 -0.8220 -0.3929 -0.6005 0.5971 -3.4556 -4.0500 -0.2576 3.6470 2.6336 0.9702 0.0316 1.0525 -0.6850 -1.8687 -0.8992
1.7823 4.4507 2.6794 -0.2041 -4.6125 -2.4680 1.6651 2.0459 4.1545 1.3123 -4.7424 -4.1526 -0.4808 2.7383 4.4625 -2.0000 1.9004 0.1225 1.2473 -1.6421 -1.2483 -2.9223 -1.7108 0.7652 1.0577 2.5239 1.3949 0.2125 2.8069 0.1716 0.2201 -2.6362 -3.7521 -0.5331 -2.0159 -2.6909 -0.1865 0.5216 -0.3553 -1.3204 -1.3472 0.4762 0.7147 3.4795 2.5119 -0.9134 -0.6499 -0.7891 0.5128 -4.0920 -3.4909 0.5514 2.7363 3.8054 -0.7957 1.7107 -0.0146 0.0798 -1.4650 -1.5822
3.0063 2.8352 2.6771 0.3651 -1.8726 -4.6725 0.7527 3.7621 1.0812 1.6386 -3.7489 -4.7673 0.3158 4.6304 3.1389 -1.6647 1.6539 1.0081 0.0773 -2.9020 0.0809 -3.7285 -0.9547 -1.5015 1.1870 1.2915 2.3554 -0.2173 0.9045 2.7581 0.9640 -2.9246 -2.6140 0.0219 -1.9912 -2.0513 -0.9592 -0.5607 1.0414 -2.6612 -1.3706 -0.2906 1.6032 2.6034 2.9758 -1.2352 -0.9117 -0.3352 1.0233 -2.9138 -4.1165 0.8306 3.7727 2.4343 -1.0208 0.7360 1.5042 -0.2986 -2.0387 -0.7066
-0.8690 4.3745 2.2836 -0.3791 -2.8259 -4.9050 0.4965 3.5948 4.7029 0.9865 -4.6404 -4.8193 2.1849 4.4793 3.4579 1.4000 0.7064 -0.3300 0.2713 -2.8520 -0.0821 -3.6542 -0.0881 -0.6289 -0.1792 2.0680 2.3961 0.9043 1.1010 1.9752 0.6967 -3.3366 -2.8318 -0.2083 -2.3547 -2.2944 -0.4491 -0.3246 0.6171 -2.4341 -1.1520 -0.2213 0.2925 3.5020 2.3352 -1.0125 -0.8661 -0.6028 0.4478 -3.6866 -4.2707 1.1041 3.9091 3.5328 0.6410 0.5176 0.6160 -0.2403 -2.1258 -0.9304
-0.6233 4.8357 3.2263 -0.8641 -4.3878 -3.4575 2.0212 3.3356 4.4961 0.9476 -4.3921 -4.8282 2.2872 4.7150 2.6998 -1.8288 1.1568 0.7297 1.3817 -1.8757 -1.4267 -2.6927 -3.0506 0.1404 0.0221 3.0655 1.7144 0.3268 1.5847 1.7147 0.1314 -2.2867 -4.0070 -0.5009 -1.8495 -2.7891 -0.0572 -0.2957 0.3344 -1.2039 -2.3285 0.3616 0.1588 3.6163 3.1154 -0.7687 -1.2061 -0.5314 0.1403 -3.7857 -4.1359 1.5897 3.9801 3.3825 -0.6553 0.8296 0.8673 0.1880 -1.6609 -1.6068
1.6045 2.9279 4.3936 -1.5191 -3.5332 -4.2560 -1.0027 2.1449 3.5934 0.0132 -5.1865 -4.5347 -1.0460 4.3154 2.9082 -0.7098 2.2415 -0.4159 1.6013 -2.1003 -0.7928 -2.5931 -0.5259 0.9229 1.4480 2.0349 2.1588 1.3935 2.4429 0.7032 0.5635 -3.3412 -3.1023 -0.1091 -2.3177 -2.3420 0.6114 0.3480 -0.1305 -1.0730 -1.1125 0.5608 1.0699 3.1809 3.0658 -0.3217 -0.6342 -0.6495 -0.3307 -4.1312 -4.0166 -0.4220 3.2997 3.1840 0.3014 1.6862 0.0023 0.5206 -1.7397 -1.2527
0.7319 4.0378 1.5230 -1.3433 -3.6007 -3.6184 -1.1336 3.7178 3.7268 0.3749 -4.7682 -4.5314 0.7251 4.5284 4.7562 1.5924 1.0545 -0.5700 0.1477 -2.8876 -0.4272 -3.4346 -0.6134 -1.2056 0.5062 1.8341 2.5208 1.5529 1.0016 1.8193 0.8858 -2.8234 -3.2152 0.1775 -1.8055 -2.4877 -0.0126 -0.2327 0.5182 -2.1450 -0.8533 -0.1750 0.9728 3.2561 2.7247 -0.7415 -0.6466 -0.6543 -0.0319 -3.8275 -3.8611 0.2048 3.9047 3.8410 1.0558 0.6381 0.4517 -0.0853 -1.9142 -1.1358
2.5633 1.6786 2.2831 0.1849 -3.3105 -3.2551 1.6574 4.3305 2.0796 1.9132 -2.4523 -4.4473 1.0306 3.6251 0.0084 -2.4912 0.5316 2.2205 -0.7369 0.1304 -2.1645 -3.5920 -2.5888 -0.6049 0.2207 1.9552 2.8864 -0.2695 0.5431 3.1217 1.5309 -1.6119 -2.2314 0.4817 -1.6097 -1.2472 -0.7923 -0.5793 1.0939 -2.0919 -2.2164 0.0223 1.2431 2.0090 1.7757 -1.5180 -0.8411 -0.1264 1.2362 -2.4782 -3.4273 1.2954 3.3840 1.1786 -1.3181 0.1940 2.1063 -0.5477 -0.6933 -1.2724
1.7148 4.4868 2.7258 -1.1156 -4.3017 -2.7428 -1.1071 3.0510 3.8206 0.2748 -4.9677 -4.4076 0.5636 3.6064 5.2508 0.6535 1.6816 -1.4679 0.9551 -2.3352 -0.6780 -3.4036 -1.4903 -0.2980 0.4151 2.7702 1.6532 1.3712 1.9719 0.7957 0.5716 -2.7714 -3.4827 -0.1702 -1.8572 -2.6554 -0.0079 0.1513 0.1540 -1.8291 -1.2803 0.2123 1.1048 3.1828 2.9347 -0.8117 -0.6810 -0.7070 -0.0974 -4.1135 -3.6129 0.1856 3.3184 4.1216 0.6225 1.2879 -0.3065 0.1100 -1.7102 -1.3101
1.7072 1.8738 1.3801 0.4478 -4.2720 -2.7616 2.0555 4.8690 2.5938 1.7955 -3.8165 -4.5311 1.8403 3.1244 4.0461 -3.1204 0.7190 1.0648 1.1463 -0.7706 -0.9775 -2.3618 -3.3248 0.2860 -0.4379 2.4620 2.3174 -1.4725 2.4544 1.2116 0.6447 -1.9942 -3.4797 -0.3379 -1.7657 -2.4545 -0.9534 0.2689 0.3767 -1.3485 -2.0347 0.6015 0.8884 2.9959 1.8145 -1.2040 -0.9254 -0.4018 1.0241 -3.4392 -3.6575 1.6301 3.6323 2.9542 -1.9526 1.0600 0.9007 0.0091 -1.1168 -1.2837
2.2414 3.0876 1.4931 0.0881 -3.7042 -4.1873 1.7631 2.0364 4.0763 2.0891 -4.5746 -3.5510 1.1036 4.1861 4.4225 -1.1020 1.7850 -1.5308 0.7700 -1.2713 0.0129 -4.0631 -1.8645 -0.0831 0.0385 2.1490 1.8091 -0.9079 2.5917 0.7147 1.2487 -2.6437 -2.3995 -0.0459 -2.2060 -1.9427 -1.4323 0.2984 0.2097 -2.4216 -1.7882 0.2101 0.9814 3.2647 2.1969 -1.5396 -0.8937 -0.6069 1.1868 -3.7604 -3.4008 1.2772 3.2359 3.6708 -1.1297 1.5287 -0.3302 -0.1459 -1.4569 -0.7835
2.3846 4.1866 1.9254 0.7145 -2.4940 -4.3326 0.6000 3.7173 4.1883 2.0559 -4.2277 -3.7416 2.0491 1.9669 4.3082 0.0671 1.3952 -0.7447 -0.5609 -2.4787 0.3717 -4.1498 -1.6703 -1.9335 0.2839 3.0915 1.4607 -0.4905 1.7982 1.5663 0.9195 -3.0179 -2.0083 -0.1907 -2.1103 -1.8925 -1.5990 0.1494 0.2903 -3.2199 -1.2585 -0.6098 1.6148 2.9790 2.1677 -1.8156 -0.7740 -0.7982 1.2841 -3.3283 -3.4334 1.4681 2.8233 3.6552 -0.6241 1.1269 0.2312 -0.7911 -1.8745 -0.6705
1.4308 3.9853 3.3267 0.0130 -3.0785 -4.7077 -0.4314 2.1929 4.6276 0.1122 -5.2998 -4.2505 -1.7895 3.3061 3.1816 1.0634 2.0562 -1.0000 -0.2747 -2.6150 0.1329 -2.6278 1.2949 -0.7459 1.2223 1.7258 2.4351 2.0186 1.6669 1.1520 0.1942 -3.7424 -2.4212 -0.1322 -2.3608 -2.1670 0.5619 0.0747 0.1028 -1.7616 -0.0243 -0.2053 0.5442 3.0615 2.6389 -0.4458 -0.4043 -0.8244 0.0883 -4.1361 -3.8690 -0.6813 2.8888 3.4903 1.1579 1.3122 -0.0280 -0.2627 -1.9041 -0.8687
0.6231 4.7058 2.3471 -0.1671 -4.3766 -2.9418 1.5234 2.7335 4.2267 1.5775 -4.1450 -4.3759 2.9612 2.3802 2.4987 -3.0209 0.9649 0.6358 1.2644 -0.7943 -1.2234 -1.8249 -3.1354 0.8930 -0.5183 2.5543 2.2325 -1.3356 2.6294 0.9604 0.4452 -2.1654 -3.6191 -0.3914 -1.7984 -2.5056 -0.8133 0.4804 0.0851 -0.9183 -1.7394 0.7840 0.7854 3.2956 2.0384 -1.0209 -0.8564 -0.4239 0.6978 -3.6479 -3.6842 1.8738 2.7544 2.9174 -1.8352 1.2713 0.5661 0.0941 -1.1110 -1.4113
0.7363 3.3157 4.0885 0.1185 -2.5519 -4.4467 3.2568 2.6046 2.1522 2.2676 -3.2306 -4.1647 2.1802 4.5878 1.8325 -0.6689 1.3623 -0.3574 0.2396 -2.1301 0.3873 -3.9468 -2.8438 -1.1232 -0.2013 2.8178 1.9210 -1.0649 1.5763 2.0098 1.1294 -2.2507 -2.3002 -0.2126 -1.9511 -1.8830 -1.8237 -0.3041 0.7681 -2.9053 -2.2376 0.0323 1.0150 2.6871 2.8078 -1.8772 -1.2194 -0.3501 1.2380 -2.7436 -3.7140 2.1769 3.4246 2.2072 -1.1553 0.9019 0.6706 -0.5024 -1.8153 -0.5380
1.7443 2.2979 3.5999 1.4415 -0.4872 -3.1487 1.9898 4.4887 1.8931 2.3907 -2.3437 -4.0475 3.0320 2.9691 0.5588 -2.8227 1.0201 1.1656 0.3307 -2.5797 -0.3469 -4.0586 -2.7377 -0.3242 -0.0441 2.3562 1.9154 -0.8207 1.1811 2.4704 0.1359 -2.4886 -3.2261 -0.6684 -1.7618 -2.2767 -1.1438 -0.5697 0.9062 -2.6361 -2.3003 0.4295 1.4370 2.1919 2.1830 -1.7175 -1.2982 -0.2033 1.4392 -1.7911 -3.5109 2.2389 3.2304 1.4536 -1.7083 0.5779 1.4234 -0.5598 -1.9552 -0.9144
0.2588 4.2497 2.5816 1.5219 -1.0194 -3.3262 2.6930 3.6086 1.1516 2.1543 -2.8728 -4.4728 3.2974 3.3083 3.3240 -2.5754 1.1489 1.0004 0.3227 -2.6639 -0.3404 -4.1783 -2.2901 -0.7579 0.4491 1.9944 1.7033 -0.5940 1.1072 2.3487 0.1276 -2.9611 -3.1841 -0.6513 -2.0716 -2.3612 -1.1166 -0.6528 0.8340 -2.7740 -2.1293 0.1296 0.9905 2.9986 2.6971 -1.6547 -1.2623 -0.3642 1.3634 -2.3002 -3.7343 2.4407 3.3079 2.4500 -1.5345 0.5758 1.3037 -0.5405 -2.0758 -0.9830
1.7289 4.0374 1.6749 0.3041 -2.7917 -4.5480 1.2268 3.1182 4.3175 1.6976 -4.5275 -4.0965 2.3220 1.3084 3.4773 -2.8292 1.7093 -0.1200 0.9196 -1.6134 0.1139 -3.4547 -2.1486 0.1331 -0.3850 2.8334 1.9353 -0.8619 2.9127 0.4999 1.0645 -3.0715 -2.3001 0.1042 -2.0366 -2.0159 -0.8021 0.5771 0.0201 -2.0630 -1.3205 0.5298 1.1251 2.7496 1.9714 -1.2160 -0.6940 -0.5409 1.0565 -3.5530 -3.7227 1.6245 2.3003 3.3120 -1.6251 1.6801 0.1139 0.0634 -1.4698 -0.7551
2.9802 3.0701 1.6491 1.8295 -1.5511 -2.8701 1.8074 0.9406 3.0816 2.5439 -3.6964 -3.0657 0.7687 2.6585 4.1536 -2.2094 2.1179 -0.8975 0.0249 -2.1788 0.1944 -4.3551 -1.5002 -0.5336 0.8484 2.3599 0.7288 -0.6426 2.5908 0.8399 0.2555 -3.3045 -2.4458 -0.5610 -2.1841 -2.0537 -1.1656 0.3517 0.1923 -2.8900 -1.1923 0.2000 1.5534 2.9930 1.9054 -1.7244 -0.7128 -0.6079 1.6542 -2.8917 -2.8207 1.3391 2.2094 3.1682 -1.4077 1.6819 -0.0767 -0.6493 -1.7618 -0.7417
2.7358 1.4296 2.3239 0.6123 -2.4751 -3.7614 0.7991 3.2023 3.4820 2.2220 -3.9573 -3.1597 -0.4075 1.2720 3.4147 -0.6048 2.0282 -1.8452 0.3303 -1.2365 0.7366 -4.0381 -1.5736 -0.4235 1.3466 2.5825 0.6941 -0.0580 2.9750 0.2846 0.7956 -3.0550 -1.4482 -0.2382 -2.0578 -1.3615 -1.2833 0.9523 0.1018 -2.7705 -0.7937 0.3296 1.3781 1.5904 1.8370 -1.5812 -0.3423 -0.4575 1.2943 -3.2170 -2.8585 0.5044 1.9725 2.9957 -0.6544 1.9419 -0.6234 -0.3824 -1.2384 -0.2609
1.8238 1.3794 1.7236 0.0159 -2.0572 -4.5060 1.7158 4.1317 0.8096 1.9569 -3.2327 -4.6095 2.5073 4.3372 2.9348 -3.0068 0.9695 1.1465 0.9344 -1.9315 0.2845 -3.5241 -2.6042 -0.7474 -0.3176 2.5350 1.9077 -1.1717 1.4910 2.5937 1.3447 -2.2193 -2.5205 0.1334 -1.7589 -1.8877 -1.1331 -0.4107 1.1655 -2.2489 -2.2120 0.2553 1.1124 2.4587 2.3887 -1.3102 -1.0967 -0.0995 1.1449 -2.5769 -3.9682 1.8511 3.7309 2.0987 -1.8811 0.6869 1.5422 0.0528 -1.6202 -0.5119
1.3311 3.9264 1.0721 0.7477 -2.2658 -4.4916 2.9945 2.3024 2.6998 2.1138 -4.0161 -4.0069 2.1380 3.6892 4.2861 -2.4937 1.7437 -0.2142 0.2138 -2.3570 0.3891 -3.9040 -2.1733 -1.3094 0.2649 1.9291 1.9265 -1.2425 2.0069 1.8097 1.3058 -2.6457 -2.2074 0.0593 -1.9927 -1.8974 -1.4031 -0.1029 0.6650 -2.7852 -1.7861 -0.1345 0.8610 3.2725 2.2827 -1.5708 -0.9761 -0.4787 1.4153 -3.0786 -3.6416 2.0414 3.1249 3.2041 -1.7585 1.2300 0.6253 -0.3286 -1.8307 -0.5786
1.0362 3.3946 3.8042 -0.4160 -2.6956 -4.3969 2.0557 4.2375 1.2996 1.7805 -3.0307 -4.8627 3.0194 2.1777 1.3891 -3.0020 1.1146 0.8949 1.0925 -1.4952 0.0547 -3.0836 -3.1183 -0.2714 -0.3354 2.7149 1.9059 -1.3041 1.7005 2.4674 1.1760 -2.2586 -2.6704 0.0446 -1.6630 -2.0056 -1.0527 -0.1534 1.0121 -1.9500 -2.2052 0.5391 0.9911 2.5673 2.6125 -1.2812 -1.0339 -0.1153 0.8991 -2.6877 -4.0842 2.1298 2.9509 1.7189 -1.8894 0.8866 1.3557 0.0895 -1.4029 -0.6475
-0.7015 3.7779 3.5500 -0.7326 -4.6393 -2.9801 1.6132 1.4797 3.3467 0.7537 -4.6532 -4.6957 2.1319 3.5924 2.6705 -2.5027 0.5826 1.0977 1.1157 -0.1923 -2.1703 0.1327 -1.7629 2.2235 -0.3722 3.2882 1.1987 -1.6043 2.7187 0.5310 0.4240 -2.6083 -3.4777 0.0097 -2.2286 -2.1494 -0.6192 0.6808 -0.2595 0.6240 -0.9726 0.8379 -0.1673 2.8020 2.6150 -0.3257 -0.7404 -0.3033 0.1968 -4.0648 -3.7773 1.3084 2.7117 2.8695 -1.6295 1.2158 0.5113 0.3450 -0.9875 -1.6387
2.4949 3.0791 2.7546 -0.1593 -3.6752 -3.4598 1.2670 0.5720 2.8607 2.0656 -4.1272 -3.4839 -0.5105 1.7677 3.6250 -0.7285 2.0139 -1.9020 0.5456 -1.2867 0.5802 -4.0750 -1.0652 0.1451 1.1612 2.6358 0.7809 -0.1565 3.0624 0.1717 1.2300 -2.5811 -1.8505 0.0396 -1.8036 -1.6243 -1.1596 0.9114 0.0987 -2.4662 -0.9176 0.5562 1.1409 2.8745 2.2720 -1.4648 -0.3989 -0.4298 1.1083 -3.5256 -3.0132 0.5412 1.7075 3.0017 -0.6936 1.9491 -0.6781 -0.1799 -1.1923 -0.4051
2.5546 3.3302 2.3036 0.3969 -3.9561 -1.7062 1.7640 0.6495 2.1561 2.0044 -3.9497 -3.3101 0.3186 1.3045 3.7879 -1.5199 2.2580 -1.4206 0.8206 -0.7809 -0.3351 -3.2728 -2.5199 0.3278 0.6851 2.9851 0.8068 -0.8269 3.0195 0.7403 0.7437 -1.9375 -2.9509 -0.3910 -1.5024 -2.1798 -1.3958 0.7495 0.3442 -2.0796 -1.4046 0.6566 1.1545 2.9463 2.2423 -1.5822 -0.4726 -0.4040 1.1173 -3.3735 -2.6926 1.0275 1.5692 2.8262 -1.2817 1.9881 -0.2486 -0.2372 -0.9027 -0.9439
1.0549 4.1632 1.7003 0.6510 -3.7852 -2.8819 2.3005 2.4239 3.6046 2.6101 -2.7180 -3.3129 3.1384 1.5979 1.6574 -1.9195 1.8050 -0.7394 0.5918 -1.2276 -0.1109 -3.4484 -3.1895 -0.2254 -0.2215 2.1535 2.3161 -1.5049 2.3626 1.5432 0.6185 -1.4026 -3.0039 -0.5211 -1.5027 -2.1262 -1.6976 0.0757 0.7849 -2.3690 -2.1637 0.5319 1.0042 2.7129 1.6274 -1.8137 -0.9793 -0.2000 1.4125 -2.6810 -3.0616 2.2558 2.1839 2.2703 -1.7026 1.4019 0.4013 -0.4395 -1.2310 -0.7751
1.1494 4.2520 2.4598 1.8059 -1.1535 -2.8208 3.2625 2.5860 1.7620 2.4981 -3.1409 -3.6682 2.5816 1.3733 3.5607 -2.6411 1.8030 -0.4011 0.1751 -2.2082 0.0035 -4.1792 -2.4429 -0.4259 0.3478 2.3390 1.1802 -1.1404 2.2027 1.4161 0.2814 -3.0018 -2.7533 -0.5768 -1.9961 -2.1823 -1.4023 0.0369 0.4624 -2.8536 -1.7650 0.3260 0.9983 2.8085 2.4616 -1.8537 -0.9768 -0.4623 1.6329 -2.4582 -3.1347 2.3433 2.1777 2.6690 -1.7943 1.3545 0.3656 -0.6348 -1.7901 -0.8182
0.4060 3.6508 3.3436 0.0299 -3.4284 -3.9375 2.8454 2.8868 2.1235 2.2799 -3.2948 -4.2165 2.1762 0.8466 2.8813 -2.1568 1.6903 -1.1703 0.8565 -1.4518 0.3608 -3.8190 -1.8555 0.8463 0.1667 2.9268 1.0215 -1.3184 2.7352 0.8072 1.2955 -2.1543 -2.3550 0.0111 -1.9358 -1.7442 -1.2208 0.3721 0.4947 -2.1571 -1.7074 0.8825 0.5190 2.5246 2.4348 -1.4375 -0.9007 -0.1560 1.2670 -3.0112 -3.5886 1.9129 1.9841 2.5142 -1.5955 1.5629 -0.0868 -0.0610 -1.4403 -0.4555
2.2316 0.4599 2.1105 1.4892 -0.2300 -2.5667 2.0968 3.3160 2.6706 2.9332 -1.9689 -2.7653 2.3765 3.2765 0.4126 -1.4950 1.6550 -0.8355 -0.0481 -2.1483 0.4421 -4.3166 -2.7459 -0.3162 0.0290 1.4489 2.2691 -1.0936 2.0897 1.4819 0.6154 -2.4445 -2.3608 -0.4983 -1.7267 -1.7985 -1.9441 -0.0076 0.7221 -3.0734 -2.0021 0.5100 1.3208 1.4047 1.4889 -2.1271 -1.0944 -0.2086 1.8009 -1.5457 -2.5734 1.9947 2.7440 1.4461 -1.5172 1.2387 0.3186 -0.7747 -1.7194 -0.4475
1.2010 2.6236 0.2192 1.9264 -0.7344 -2.1184 2.9850 3.9306 1.9673 2.6976 -2.1226 -3.7393 2.9184 1.9037 2.9951 -2.7604 1.5061 0.4771 -0.0123 -2.6060 -0.0581 -4.3566 -2.2316 -0.8812 0.3605 1.3565 2.0597 -1.1347 1.5121 2.2288 0.4815 -2.4835 -2.8773 -0.4916 -1.7122 -2.1486 -1.5362 -0.4244 0.8704 -3.0201 -2.0214 0.0929 1.0222 2.6578 1.6643 -1.9030 -1.1239 -0.3385 1.8041 -1.7710 -2.9801 2.3971 2.7456 2.2775 -1.8865 0.8926 1.0832 -0.6921 -1.8977 -0.7938
0.9878 3.1350 3.2820 1.3196 -0.2700 -2.2132 2.9603 1.3227 1.2281 2.7782 -1.7439 -3.1360 3.4609 3.4531 1.8253 -1.7819 1.5559 -0.7927 -0.1655 -2.4087 0.3344 -4.3944 -2.8998 -0.6303 0.3538 1.4754 1.6547 -1.1162 1.7894 1.4912 0.6377 -2.5573 -2.4152 -0.5982 -2.0151 -1.9159 -1.9882 -0.2528 0.6555 -3.2110 -2.1788 0.2977 1.1537 2.7367 1.8916 -2.1973 -1.2798 -0.3359 1.6865 -1.5012 -2.6370 2.6352 2.5623 1.6675 -1.6491 1.0384 0.3110 -0.8721 -1.9613 -0.5627
2.3816 3.6546 1.8604 0.3414 -2.3772 -4.1316 2.0435 1.0311 0.8349 2.3249 -3.4356 -3.8168 1.6568 0.5914 3.0347 -2.8226 2.0205 0.2162 0.5083 -1.6669 0.6725 -3.8141 -1.8671 -0.7332 0.0951 3.0966 1.2711 -1.1890 2.5685 1.8728 1.3886 -2.1910 -1.9884 0.1164 -1.6274 -1.6132 -1.3106 0.3943 0.9076 -2.5786 -1.4254 0.2952 1.2514 2.8089 2.1991 -1.4615 -0.5473 -0.1825 1.4079 -2.7473 -3.3864 1.6828 1.3753 2.0956 -1.8610 1.6592 0.8868 -0.1612 -1.3152 -0.2947
2.5278 2.6699 0.3657 1.9359 -0.7834 -2.3198 2.1194 1.9683 3.1207 2.7606 -2.7248 -3.1569 1.7850 -0.0454 2.1158 -2.7266 2.1205 0.2754 0.1506 -1.9146 0.3260 -4.2809 -1.6414 -0.7688 0.2568 2.9621 1.1454 -0.9316 2.3401 1.8451 0.4803 -2.6858 -2.4055 -0.4641 -1.7214 -1.9028 -1.4546 0.2567 0.8348 -2.9613 -1.3823 0.2175 1.3607 1.9664 0.8668 -1.7881 -0.5963 -0.2825 1.8345 -2.0850 -2.6750 1.7788 1.1776 2.0747 -1.7941 1.5930 0.8718 -0.5890 -1.4741 -0.5484

>  <OB_ATOM_TYPES> (1aqwC1)
N.3 O.co2 O.co2 O.co2 O.co2 O.2 O.2 S.2 C.3 C.3 C.3 N.am N.am C.2 C.3 C.3 C.2 C.2 C.2 C.2

>  <ENSEMBLE_RMSD> (1aqwC1)
1.430 1.515 1.610 1.616 1.639 1.644 1.650 1.658 1.702 1.703 1.737 1.744 1.761 1.767 1.782 1.795 1.838 1.840 1.843 1.895 1.902 1.913 1.951 1.962 1.966 1.989 2.018 2.030 2.058 2.091 2.133 2.169 2.171 2.172 2.212 2.265 2.272 2.280 2.293 2.303 2.329 2.367 2.368 2.375 2.402 2.479 2.488 2.608 2.624 2.652

$$$$
