
 OpenBabel03071213D

 23 23  0  0  0  0  0  0  0  0999 V2000
   -1.1700   23.2880   39.9810 C   0  0  0  0  0
   -5.6870   22.1630   50.5840 C   0  0  0  0  0
   -6.1260   22.2290   48.0990 C   0  0  0  0  0
   -5.6560   27.0220   45.6040 O   0  0  0  0  0
   -5.6140   24.9330   45.0030 O   0  0  0  0  0
   -2.1200   24.3840   48.2730 O   0  0  0  0  0
   -0.5940   21.4250   46.3610 S   0  0  0  0  0
   -3.7880   21.7840   48.9780 C   0  0  0  0  0
   -2.5980   26.1750   45.9030 C   0  0  0  0  0
   -3.7810   24.2020   46.7590 N   0  0  0  0  0
   -0.6400   23.4970   41.2910 O   0  0  0  0  0
   -1.5610   21.5410   47.8970 C   0  0  0  0  0
   -2.6830   24.3120   44.1910 C   0  0  0  0  0
   -0.9260   25.9200   44.0220 C   0  0  0  0  0
   -2.2120   23.6720   43.0650 C   0  0  0  0  0
   -0.4470   25.2920   42.8960 C   0  0  0  0  0
   -5.1150   22.5330   49.2110 C   0  0  0  0  0
   -3.9030   25.6280   46.5080 C   0  0  0  0  0
   -2.9540   22.1570   47.7440 C   0  0  0  0  0
   -5.1290   25.8990   45.6220 C   0  0  0  0  0
   -2.8970   23.6890   47.6030 C   0  0  0  0  0
   -2.0560   25.4460   44.6900 C   0  0  0  0  0
   -1.0940   24.1600   42.4180 C   0  0  0  0  0
  1 11  1  0  0  0
  2 17  1  0  0  0
  3 17  1  0  0  0
  4 20  1  0  0  0
  5 20  2  0  0  0
  6 21  2  0  0  0
  7 12  2  0  0  0
  8 17  1  0  0  0
  8 19  1  0  0  0
  9 18  1  0  0  0
  9 22  1  0  0  0
 10 18  1  0  0  0
 10 21  1  0  0  0
 11 23  1  0  0  0
 12 19  1  0  0  0
 13 15  2  0  0  0
 13 22  1  0  0  0
 14 16  1  0  0  0
 14 22  2  0  0  0
 15 23  1  0  0  0
 16 23  2  0  0  0
 18 20  1  0  0  0
 19 21  1  0  0  0
M  END
>  <MOLID> (1atlB1)
1atlB1

>  <SMILES_CANONICAL> (1atlB1)
S=C[C@H](C(=O)N[C@H](C(=O)O)Cc1ccc(cc1)OC)CC(C)C	

>  <FINGERPRINT> (1atlB1)
0000000000000001000000000000000000000001000000000101000000001000001000000001000000000001000010000000000000000001000001100000000000000000000000000001000010000000000000000000000000000000000000000000001000000100000000000000000000100000000000000100000000000100000000000000000000001000100000000000000000001000000010001100000000001000001100000000000000000000010000000000000110110000000000000000011000000000100000000000001000000100000000000000000000000000100000010000100000000000000000010000000000001000000000000000100000010000000000000011000000000000000000100000000000000000000000000000000001000000000000000000100000000000000000100000011100000001000000000000000000010001000000000001100000100000000011100000000000000011000000000000000001000000100000010101000000000000000110000000000000000000000010000000000010000000000000000000000000000100000000000001001000000000000000000001000000000000000000000000000000000100000000000000001000000000000000000000011000000000000000110010000000000000010000000000000000000000000000010010011000001000

>  <MACCS166> (1atlB1)
000000000000000000000000000000000000000000000000010001000000000000000000110100000000000101011010001000010001011010101000001001100010000100111110010010110111111110111000

>  <OB_MW> (1atlB1)
337.135

>  <OB_logP> (1atlB1)
2.86

>  <OB_PSA> (1atlB1)
107.72

>  <OB_MR> (1atlB1)
93.7275

>  <OB_ATOMIC_CHARGES> (1atlB1)
0.2524665693 2.34319e-05 2.34319e-05 -0.2437370649 -0.2437370649 -0.2729700759 -0.0546766318 0.0140961416 0.0596057437 -0.1949554527 -0.471427212 0.024760196 -0.0010849234 -0.0010849234 0.0365786041 0.0365786041 0.0008242783 0.2020533306 0.1071038073 0.3845412516 0.2459901884 -0.0196861621 0.1387139323

>  <MCT_HBD> (1atlB1)
2

>  <MCT_HBA> (1atlB1)
5

>  <ENSEMBLE_TOTAL> (1atlB1)
50

>  <ENSEMBLE_COORDS> (1atlB1)
1.8192 -0.6838 -5.7887 -2.6978 -1.8088 4.8143 -3.1368 -1.7428 2.3293 -2.6668 3.0502 -0.1657 -2.6248 0.9612 -0.7667 0.8692 0.4122 2.5033 2.3952 -2.5468 0.5913 -0.7988 -2.1878 3.2083 0.3912 2.2032 0.1333 -0.7918 0.2302 0.9893 2.3492 -0.4748 -4.4787 1.4282 -2.4308 2.1273 0.3062 0.3402 -1.5787 2.0632 1.9482 -1.7477 0.7772 -0.2998 -2.7047 2.5422 1.3202 -2.8737 -2.1258 -1.4388 3.4413 -0.9138 1.6562 0.7383 0.0352 -1.8148 1.9743 -2.1398 1.9272 -0.1477 0.0922 -0.2828 1.8333 0.9332 1.4742 -1.0797 1.8952 0.1882 -3.3517
3.6045 -1.4522 -4.4396 -2.5523 -3.1695 4.1642 -2.0812 -0.7702 4.3935 -2.0946 3.4056 1.2713 -3.3209 1.5784 0.6800 0.5512 0.7943 2.4760 2.1054 -2.7819 0.7792 -1.3776 -1.9875 2.3560 -1.0464 1.7262 -1.3440 -0.8229 0.3358 0.6638 3.6045 -0.1051 -3.9812 0.5157 -2.2852 0.8397 1.2513 2.0741 -2.3147 0.1846 -0.0955 -2.4875 2.3443 1.6177 -2.9536 1.3697 -0.5931 -3.1589 -1.5566 -2.0792 3.8531 -0.9433 1.6893 0.1716 0.0049 -1.4853 1.9976 -2.2552 2.1759 0.7234 -0.0395 0.0015 1.7475 0.1409 1.1757 -2.0497 2.4133 0.2305 -3.3877
3.0099 -0.8224 -5.4585 -2.8669 -2.5178 3.8447 -1.2750 -1.8537 5.5976 -2.0764 2.5493 1.8516 -2.9759 3.0726 -0.1658 -2.0717 -1.1605 0.1126 1.6465 -2.8959 0.8050 -0.8846 -1.1411 3.2804 0.0412 2.3059 -0.6619 -0.7142 0.5539 0.8808 3.4564 -0.5853 -4.1280 0.9478 -1.7163 1.7540 1.9156 0.7038 -1.1285 0.6944 1.6538 -2.9882 2.6842 -0.0228 -1.9594 1.5659 0.9147 -3.8888 -1.4107 -2.2587 4.1495 -1.1313 1.5244 -0.0993 -0.5405 -1.6257 1.8891 -2.1484 2.4637 0.5010 -1.1988 -0.7369 0.8658 0.8461 1.5365 -1.6561 2.4863 0.0585 -3.3975
2.4371 -2.0425 -4.6714 -3.2173 -2.7280 3.4409 -1.7588 -3.7424 1.7474 -2.7458 2.4054 1.5270 -1.4039 4.2229 1.3051 0.9819 0.8356 2.4046 2.3284 -2.5708 1.2305 -1.0863 -1.6288 2.9072 -0.8082 2.1996 -1.0728 -0.7988 0.7569 0.9240 2.9214 -0.8549 -4.0533 1.2206 -1.9813 2.3242 1.5577 1.5951 -1.7689 -0.3246 0.3924 -2.6947 2.4234 0.8228 -2.4520 0.6065 -0.4120 -3.4663 -2.2329 -2.4328 2.3338 -0.6423 2.1042 0.4319 -0.0308 -1.2907 1.8727 -1.6146 3.0310 1.1212 0.1231 0.2081 1.7916 0.1279 1.3493 -1.8643 1.9365 -0.2393 -3.3185
4.4156 1.1202 -4.9620 -1.1696 -3.0594 5.0132 -2.6411 -1.1378 5.4515 -3.0290 1.7383 0.7707 -1.7538 3.5241 0.1792 0.6015 0.6757 2.2490 0.6323 -3.8471 1.5596 -1.7335 -1.4695 3.1846 -1.0454 1.0346 -1.5977 -0.9735 0.1064 0.6509 3.6476 -0.0100 -4.5610 -0.4683 -2.6050 1.4241 0.6934 -0.5076 -2.5339 0.9336 1.8877 -2.8361 1.8015 -0.7415 -3.2606 2.1303 1.6343 -3.6151 -1.4495 -1.6179 4.6624 -0.8534 1.3152 -0.1242 -0.4447 -1.4664 2.3939 -1.8969 2.3140 0.2986 -0.2057 -0.1175 1.7716 0.2503 0.8589 -2.3038 2.5583 0.3704 -3.8151
3.2926 1.4875 -5.7384 -3.3484 -2.9703 3.3091 -2.7324 -0.6631 3.8804 -0.9493 3.4564 -0.0113 -2.6043 2.1856 0.9052 1.4667 -0.7122 1.1912 1.8586 -1.7603 5.1056 -1.0893 -2.1832 2.7639 -0.8763 0.3675 -0.9639 -0.5491 0.3979 1.4621 2.4843 0.3360 -5.5182 1.1804 -2.0899 3.6196 0.2754 -0.7660 -2.8710 0.7337 1.5736 -2.4640 1.0699 -0.7642 -3.9579 1.5935 1.5768 -3.6319 -2.2179 -2.0789 3.7650 -0.4808 1.1834 0.2527 0.0628 -1.2493 3.0806 -1.4813 2.2910 0.4357 0.4287 -0.5107 1.8145 0.1089 0.4444 -2.0813 1.7738 0.4480 -4.3476
3.6846 -0.2860 -5.2080 -2.2753 -1.5505 4.7118 -3.4657 -2.4092 2.7327 -2.6450 2.1088 1.4931 -1.5772 3.5746 0.1288 1.2807 -0.6707 0.7380 2.2757 -2.2155 4.3869 -1.0086 -2.2911 2.6956 -1.1454 0.6593 -1.0220 -0.6836 0.3723 1.3730 2.7699 0.8000 -5.1108 1.3748 -2.2787 2.9887 0.3269 1.8651 -2.6731 0.5151 -0.5359 -2.4533 1.2873 1.8850 -3.6150 1.5278 -0.5193 -3.4979 -2.2662 -1.6257 3.2049 -0.7310 1.3194 0.2827 0.1973 -1.3735 2.7745 -1.6749 2.4530 0.6119 0.3341 -0.5486 1.5117 -0.0470 0.6139 -2.0336 1.9456 0.6531 -4.0207
2.8934 -1.1269 -5.5372 -3.6363 -2.5529 3.0674 -1.6671 -4.0160 2.9017 -0.6070 3.7802 1.0101 -2.3585 2.4352 1.5688 0.7943 0.8757 2.7167 2.3428 -2.6250 3.1096 -1.3949 -1.5628 3.2415 -1.0582 1.4290 -1.1514 -0.6363 0.3228 0.9793 2.7920 0.2322 -5.1254 0.9745 -1.7931 3.5663 1.0054 1.9741 -2.5066 -0.1096 -0.1526 -2.8099 1.9267 1.6579 -3.4359 0.8598 -0.4772 -3.8408 -2.2128 -2.6455 2.5748 -0.4990 1.5650 0.2510 -0.0545 -1.3775 2.5587 -1.2888 2.6068 1.0034 0.0935 0.0612 2.1228 -0.0323 1.0184 -2.1517 1.8728 0.3712 -4.1133
3.1357 -0.1025 -6.1292 -3.7582 -2.1187 4.0828 -2.0291 -3.7615 3.5109 -0.5193 3.3235 0.6291 -2.3616 2.0868 1.1559 0.8736 0.6656 2.6151 2.0982 -2.9303 3.4262 -1.4655 -1.3338 3.6627 -0.9852 0.7560 -1.2813 -0.5684 -0.0954 0.9638 2.9265 1.0705 -5.3508 0.8760 -1.8800 3.8479 0.6950 2.0279 -2.6736 0.3731 -0.3476 -3.0266 1.5958 2.0848 -3.6716 1.3549 -0.2895 -4.0927 -2.5114 -2.3511 3.2635 -0.4298 1.0506 0.0953 -0.1850 -1.4860 2.8650 -1.2357 2.1727 0.6902 0.1130 -0.1854 2.1628 0.0722 0.7600 -2.3263 1.9351 0.8839 -4.4192
3.2628 -0.2788 -5.9481 -3.7228 -2.3203 4.0640 -1.9347 -3.8459 3.3569 -0.4393 3.4149 0.6369 -2.2961 2.2419 1.2433 0.8249 0.7131 2.6568 2.1543 -2.8032 3.4017 -1.4878 -1.3955 3.6327 -1.0003 0.8350 -1.2602 -0.6289 -0.0023 0.9979 2.7841 0.9732 -5.4677 0.8615 -1.8472 3.8347 0.7324 2.0106 -2.6753 0.2797 -0.3399 -3.0311 1.6452 2.0169 -3.6648 1.2340 -0.3239 -4.1257 -2.4874 -2.4477 3.2052 -0.4397 1.1302 0.1169 -0.1956 -1.4650 2.8423 -1.1931 2.2894 0.7193 0.0663 -0.1298 2.1857 0.0490 0.7771 -2.3170 1.9314 0.7970 -4.4045
3.1243 0.6880 -6.3638 -3.8056 -1.6030 4.2187 -2.5237 -3.2965 2.9826 -0.4489 2.9109 0.4596 -2.3096 1.6799 0.9260 0.9512 0.5631 2.7065 2.3080 -2.7384 3.8378 -1.3757 -1.3155 3.9971 -0.7408 0.0820 -1.2420 -0.4287 -0.4194 1.1199 2.5786 1.7029 -5.5289 0.9533 -1.8464 4.2177 0.1804 1.8019 -2.8315 0.9083 -0.4970 -3.0172 0.9251 2.1581 -3.8940 1.7404 -0.1071 -4.1439 -2.6215 -1.8252 3.3084 -0.2795 0.6029 0.1062 -0.1071 -1.5503 3.2004 -1.1551 1.7542 0.5331 0.2021 -0.3413 2.3476 0.1914 0.4286 -2.3531 1.7330 1.1677 -4.5874
4.1239 2.3652 -5.1269 -2.2461 -0.1973 5.9815 -2.5691 -2.4150 4.9851 -1.7549 2.4927 -0.7294 -3.0798 0.6564 -0.4777 1.2370 -0.4797 1.7929 0.2843 -4.3115 2.5133 -0.7188 -0.9241 4.2034 -0.2435 -0.3606 -1.2851 -0.9511 -0.3171 1.0370 2.7134 2.2906 -5.3021 0.4207 -2.8262 3.2539 -0.0309 0.7832 -3.5016 1.9343 0.5290 -2.1050 0.6965 1.3613 -4.4746 2.7121 1.1838 -3.1401 -2.1448 -0.9928 4.7019 -0.6742 0.5070 -0.1184 -0.5103 -1.7008 2.9195 -1.9777 1.1835 -0.4499 0.0468 -0.7669 1.8765 0.6087 0.3648 -2.2644 2.1234 1.5744 -4.2899
2.7106 1.0176 -6.4762 -1.4237 -2.2753 5.8064 -2.4425 -0.0488 5.5798 -2.6625 1.6657 0.7349 -2.5195 1.6464 -1.5306 -1.1829 -2.0298 0.4109 1.0714 -3.7623 3.3550 -1.8112 -1.3000 3.5489 0.3865 1.6876 -0.5229 -0.5646 0.1019 1.0631 3.4008 0.8707 -5.2402 -0.3844 -3.1281 2.8495 2.3673 0.7633 -1.7710 0.6109 1.8959 -2.9916 3.0690 0.5669 -2.9040 1.3740 1.7041 -4.2096 -1.4387 -1.0064 4.9859 -0.7151 0.6839 -0.2523 -0.5872 -1.6453 2.7178 -2.0488 1.3695 -0.4341 -0.8267 -1.2373 1.2793 1.0766 1.4310 -1.8182 2.5406 1.0287 -4.1808
3.4202 0.8600 -6.1251 -2.3328 -2.4010 5.2850 -3.6674 -2.4863 3.2272 -0.9040 3.1222 -0.2840 -2.6181 1.7292 0.2746 1.4218 -0.9829 1.4398 1.4353 -1.3426 5.5514 -1.2264 -2.2098 3.0714 -0.4592 -0.0352 -1.0688 -0.5841 0.1713 1.3636 2.3692 1.6933 -5.6507 0.9537 -1.8799 4.0505 -0.0993 1.5031 -3.0263 1.4516 -0.3153 -2.6377 0.5600 1.8743 -4.1377 2.1727 0.0921 -3.8317 -2.4570 -1.8637 3.8789 -0.3350 0.8888 0.1309 -0.1287 -1.1839 3.2811 -1.4293 1.9213 0.0658 0.3420 -0.6765 1.9365 0.3772 0.3839 -2.2286 1.7376 1.1378 -4.5661
1.9045 1.8593 -6.5333 -3.1068 -1.3299 4.3397 -3.4827 -2.6271 2.2775 -0.5183 3.1559 -0.1404 -2.3148 1.9407 0.5589 1.6078 -0.9187 1.7689 1.4592 -1.4598 5.6939 -1.1841 -2.2848 3.0731 -0.3583 -0.0447 -0.8276 -0.3864 0.2437 1.6015 2.5291 0.9998 -5.5845 0.9018 -2.0393 4.2357 1.5205 -0.4954 -2.4447 -0.0467 1.2884 -2.9037 2.1482 -0.2842 -3.6178 0.6662 1.5578 -4.1369 -2.5564 -1.6598 2.9733 -0.1208 0.9005 0.3382 -0.1091 -1.2767 3.4319 -1.1269 2.0198 0.2838 0.4798 -0.6612 2.1795 0.3895 0.3348 -2.0607 1.7047 0.7808 -4.5061
2.5628 2.5729 -6.2818 -2.9976 -0.0877 5.3845 -2.8567 -2.5035 4.9703 -1.4574 2.4987 -0.6772 -2.8450 0.6967 -0.5392 1.2586 -0.5089 2.0655 0.4967 -4.3034 2.6981 -1.0481 -0.9945 4.1870 0.0153 -0.3751 -1.1834 -0.8408 -0.3696 1.0820 3.2039 2.2140 -5.0628 0.3445 -2.8402 3.4803 2.1534 0.7329 -1.9352 0.2363 0.6608 -3.4163 2.8982 1.3330 -2.8822 1.0378 1.3084 -4.4367 -2.5368 -1.1401 4.4044 -0.4709 0.4785 -0.0287 -0.5814 -1.7763 2.9758 -1.7352 1.1942 -0.4241 0.0727 -0.8178 2.0139 0.7673 0.3935 -2.2099 2.3224 1.6338 -4.1844
2.7639 2.5574 -6.1657 -2.6686 -0.2773 5.8145 -2.9239 -2.4409 4.6971 -2.8491 1.1116 0.0025 -1.4411 2.6205 -0.9394 1.2513 -0.6151 1.9062 0.1668 -4.3716 2.6338 -0.9758 -0.9572 4.1649 -0.2183 -0.2861 -1.2546 -0.8860 -0.2509 1.0770 3.3533 1.8747 -5.0638 0.2513 -2.8708 3.3529 2.1073 0.3178 -2.0414 0.1719 0.9210 -3.3690 2.9380 0.8266 -2.9710 1.0642 1.4734 -4.3666 -2.4464 -1.0186 4.5167 -0.5134 0.5800 -0.0457 -0.6313 -1.7418 2.9134 -1.6235 1.5543 -0.3650 0.0404 -0.8128 1.9315 0.6696 0.3749 -2.2463 2.3991 1.4309 -4.1818
2.1928 2.4260 -6.6492 -2.4214 -1.8425 5.8116 -4.0809 -1.1391 4.1386 -0.9511 2.3623 -0.3316 -2.4321 0.6363 -0.1600 0.0517 0.8109 2.8135 1.4887 -3.2629 4.2222 -1.8580 -1.8826 3.3893 0.2213 -0.5491 -1.2983 -0.2824 -0.6829 1.0700 2.9405 2.1523 -5.4683 0.4338 -2.6788 3.0739 2.1665 0.8166 -2.1928 0.2827 0.2914 -3.6208 2.7866 1.4602 -3.2002 0.9650 0.9578 -4.7148 -2.6114 -1.1557 4.4806 -0.0324 0.2343 -0.0237 -0.4031 -1.4705 3.3503 -1.2850 1.0559 -0.1760 -0.1807 -0.3221 2.3981 0.8514 0.2285 -2.4029 2.1575 1.5538 -4.5096
1.7088 2.2654 -6.6388 -3.5930 -0.7722 3.3042 -3.2312 -1.4584 5.6395 -1.5637 2.0697 -0.7941 -2.4026 -0.0484 -0.8601 1.3435 -0.2496 2.4696 1.2494 -3.9039 3.6289 -1.2999 -0.9494 4.1962 0.7203 -0.3234 -0.8487 -0.5768 -0.5107 1.1959 2.4589 2.4790 -5.4476 0.5893 -2.4491 4.1042 2.1096 1.4676 -1.9870 0.5717 0.1094 -3.2729 2.5016 2.1216 -3.0980 1.0037 0.8018 -4.4700 -2.6880 -1.5435 4.2336 -0.2111 0.3882 0.1183 -0.4038 -1.7216 3.2483 -1.5183 0.7353 -0.5479 0.2334 -0.7414 2.2898 1.0859 0.4385 -2.0743 1.9124 1.7950 -4.3891
3.5653 2.9081 -5.2558 -3.1005 -0.2685 3.7840 -2.2545 -0.3315 6.0915 -2.9399 0.3630 -0.1802 -1.7508 2.0976 -1.0361 1.3759 -0.8077 1.7846 0.7229 -4.2971 3.1467 -0.7170 -0.7675 4.2187 -0.0140 -0.5808 -1.1965 -0.8263 -0.5866 1.0945 2.3148 2.2684 -5.4806 0.5887 -2.7382 3.7191 0.1584 0.0811 -3.5866 1.8017 0.9408 -2.0272 0.7402 0.7314 -4.6095 2.4080 1.6734 -3.1257 -2.1307 -0.9494 4.7195 -0.5521 0.2523 -0.0499 -0.3856 -1.7649 3.1263 -1.7878 1.0123 -0.4694 0.1750 -0.9995 1.9512 0.6969 0.2031 -2.2426 1.9113 1.5602 -4.3758
1.6689 2.2885 -6.6219 -3.4440 -1.1265 3.0548 -3.3509 -0.7807 5.4849 -1.6353 1.9424 -0.8019 -2.3802 -0.2103 -0.8748 1.3985 -0.3288 2.4278 1.2195 -3.9053 3.7874 -1.2584 -0.8585 4.1967 0.7505 -0.3499 -0.8450 -0.5463 -0.5933 1.1920 2.3999 2.5325 -5.4246 0.5977 -2.4112 4.1878 2.0709 1.4988 -1.9696 0.6008 0.0793 -3.2696 2.4425 2.1718 -3.0761 1.0114 0.7924 -4.4617 -2.6559 -1.4225 4.3083 -0.2156 0.3210 0.1169 -0.3814 -1.7073 3.2975 -1.5330 0.6109 -0.5563 0.2720 -0.7946 2.2857 1.0919 0.4280 -2.0669 1.8763 1.8232 -4.3716
2.2443 2.1310 -6.4059 -0.9796 -0.0344 5.6433 -2.7356 0.7240 4.0901 -2.2741 0.3419 -1.6447 -2.6262 1.0760 0.4838 -0.8207 -2.6637 0.7099 1.0391 -4.2175 3.7012 -1.6836 -1.4655 3.7443 0.4580 1.2291 -0.3100 -0.4112 -0.4400 1.2090 3.0198 1.6003 -5.3358 -0.4114 -3.4667 3.3742 2.2783 0.5953 -1.9384 0.5070 2.0953 -2.6308 2.8684 0.6881 -3.1460 1.1515 2.2122 -3.9226 -1.4458 -0.0481 4.2087 -0.4960 0.0629 -0.1444 -0.4734 -2.0132 3.0137 -1.9065 0.5524 -0.3540 -0.6066 -1.7700 1.5241 1.0365 1.3060 -1.6789 2.2677 1.5046 -4.1907
4.2784 0.7509 -4.8718 -1.5968 0.4806 4.2834 0.1316 -0.3512 5.8241 -3.4595 1.0657 0.5455 -3.0408 1.4810 -1.6438 0.4080 -1.8154 0.3401 -1.0546 -4.7153 2.4696 0.1293 -1.1074 3.4821 -0.2623 1.3940 -0.3551 -1.3474 -0.4029 0.8867 3.0509 1.4680 -4.9344 -0.0820 -3.3757 2.6603 0.1821 1.8918 -2.7797 1.8562 0.7295 -1.4717 0.9927 1.9159 -3.8529 2.7334 0.7574 -2.6294 -0.7441 -0.7107 4.6485 -1.3560 0.3436 -0.3481 -0.6292 -1.9893 2.5109 -2.6890 1.0184 -0.5657 -0.4433 -1.4166 1.1286 0.6246 1.2662 -1.5443 2.3177 1.3216 -3.7828
3.9110 1.0046 -5.6069 -0.3031 -0.3904 5.6813 -2.1644 0.8968 4.7045 -2.8533 0.6591 0.6605 -2.7209 0.3426 -1.5837 -1.0271 -2.5785 0.6531 1.0105 -4.1887 3.5177 -1.5117 -1.2524 3.6951 0.0474 1.3987 -0.4997 -0.4391 -0.3787 1.0620 2.7697 1.8388 -5.4309 -0.4136 -3.3590 3.2777 0.2616 2.2527 -2.8526 1.9066 0.6979 -1.9837 0.9436 2.3737 -4.0069 2.6308 0.8151 -3.2332 -1.0021 -0.0151 4.3968 -0.7159 0.1151 -0.2642 -0.4091 -1.9122 2.8901 -2.1880 0.3696 -0.4815 -0.6678 -1.6908 1.4196 0.7613 1.3785 -1.8030 2.1735 1.6227 -4.2121
3.2106 -0.8255 -5.1742 -0.7482 -4.1780 2.6150 -1.0009 -3.7712 0.2068 -0.5281 4.1534 1.4281 -2.5216 3.0730 1.1814 0.8863 1.0485 2.6249 -0.9062 -1.4387 5.2871 -0.0347 -2.0117 1.6461 -0.8699 2.0381 -1.1142 -0.7828 0.8493 1.0326 2.1035 -1.3822 -4.4767 0.0783 -1.2664 3.9539 -0.2857 -0.2013 -2.0468 1.0125 1.7314 -2.7215 0.4255 -1.0043 -2.8562 1.7728 0.8660 -3.6074 -1.0511 -3.1292 1.5711 -0.4653 2.0829 0.3462 -0.4922 -0.9304 2.6070 -1.3110 3.1249 1.0197 -0.0247 0.4128 2.1010 0.0343 1.2133 -1.9568 1.4987 -0.4548 -3.6670
4.4776 0.6448 -4.7829 -0.3911 -0.4282 5.7927 0.8350 0.3212 3.8002 -3.3920 1.3964 -0.9571 -2.9170 1.6311 1.2573 -2.1981 -1.9436 0.5129 0.1957 -4.6176 2.1387 -1.0592 -1.2693 3.5800 -0.2705 1.7633 -0.5832 -0.8097 -0.1185 0.8516 3.0826 0.7775 -5.0329 -0.9195 -3.4393 2.5164 0.1885 1.6613 -3.0564 1.9324 1.0533 -1.4928 1.0243 1.4973 -4.0988 2.8212 0.8298 -2.6201 0.1147 -0.8455 4.4330 -1.2712 0.6676 -0.2708 -0.6030 -1.9875 2.3248 -2.5859 1.2935 0.1302 -1.3059 -1.3757 1.1357 0.6522 1.4134 -1.7004 2.3990 1.0746 -3.8782
4.1653 0.8136 -5.6090 -0.8476 -1.9880 5.9815 -1.1225 0.4383 5.7294 -2.8123 0.6868 -1.5225 -2.7467 1.5218 0.5971 -1.8393 -2.0527 0.6684 0.4460 -4.3139 2.9004 -1.4291 -1.0233 3.7656 0.1630 1.5628 -0.6247 -0.5313 -0.1601 0.9438 2.9794 1.5972 -5.5293 -0.8160 -3.2311 2.9891 0.3220 1.9738 -3.1037 2.1831 0.9541 -1.9393 1.0079 1.9763 -4.2623 2.9309 0.9746 -3.1838 -0.6462 -0.8191 5.0454 -0.7932 0.4160 -0.3609 -0.6100 -1.7672 2.7253 -2.2029 0.9550 -0.3388 -1.0772 -1.3647 1.3435 0.9197 1.4162 -1.8997 2.3569 1.4335 -4.3156
4.5269 0.3627 -4.6771 0.5885 -1.7594 5.2356 -0.2688 0.5423 5.1429 -3.3157 1.4499 -1.1302 -2.8987 1.7900 1.0847 -2.2559 -1.8262 0.4674 0.0258 -4.5517 2.2168 -1.1162 -1.1415 3.5504 -0.2405 1.8286 -0.6451 -0.8153 -0.0402 0.8028 3.2387 0.8808 -4.9917 -1.0653 -3.3292 2.5182 0.2478 1.6618 -3.1129 1.9536 1.0746 -1.4934 1.1025 1.4523 -4.1315 2.8738 0.8491 -2.5903 0.0965 -0.6666 4.3176 -1.2355 0.7279 -0.3468 -0.6924 -1.8934 2.3038 -2.5507 1.3784 -0.0118 -1.3571 -1.2767 1.0978 0.6897 1.4593 -1.7426 2.4683 1.0271 -3.8646
2.6146 2.4233 -6.2881 -2.6940 -2.7757 2.3261 -3.8425 -2.1676 4.4115 -0.1675 2.4311 -0.2905 -1.9368 1.0452 0.0919 0.7650 0.8855 2.9089 1.7581 -1.7742 5.3975 -1.7642 -1.0028 3.7833 0.4474 -0.7019 -1.0819 0.0021 -0.6045 1.3037 1.3499 1.8092 -6.0702 0.3448 -0.9999 4.9726 -0.2999 0.2545 -3.2616 2.0583 0.3091 -2.7197 -0.0829 0.8904 -4.4261 2.2988 0.9587 -3.9998 -2.4921 -2.3276 3.7538 0.3507 0.1918 0.1426 -0.2673 -1.1811 3.6140 -0.7341 1.2295 -0.0120 0.2248 -0.1726 2.5983 0.8029 -0.0058 -2.3512 1.2639 1.2852 -4.8032
2.2514 1.3218 -6.5939 -3.1948 -2.6758 3.4464 -2.1267 -3.6777 1.4644 0.8032 3.0557 0.3583 -1.3054 2.7123 1.1550 1.4738 0.1249 2.6358 -0.3215 -0.2512 6.1785 -0.7599 -2.3836 3.0556 -0.7858 0.5272 -0.9833 -0.4641 0.0519 1.3659 2.1819 0.1594 -5.7763 0.2154 -1.0802 4.8376 0.7782 -0.6612 -2.5493 0.0495 1.5916 -3.0643 1.4620 -0.7358 -3.7056 0.7898 1.5127 -4.3107 -2.1191 -2.4972 2.4036 0.0039 0.8615 0.2650 -0.4921 -0.9659 3.5222 -0.2760 2.2881 0.6514 0.3078 -0.2233 2.4770 0.0543 0.5523 -2.2099 1.4743 0.3925 -4.6233
2.4258 2.8253 -6.2006 -2.8492 -0.7087 5.9236 -0.8114 0.4330 5.1692 -2.0660 1.5639 -1.2958 -2.6420 -0.6388 -1.1996 0.9041 -0.1731 2.3085 -0.1741 -4.5704 3.0580 -1.8529 -1.3272 3.7594 0.4806 -0.4803 -1.0411 -0.8949 -0.7201 0.9532 3.0065 2.8028 -4.9004 -0.9170 -3.1970 2.4760 2.1038 1.3447 -1.7099 0.6865 0.3079 -3.3761 2.6914 2.1121 -2.6482 1.3269 1.1256 -4.3887 -1.5511 -0.8838 5.1733 -0.5818 0.1531 -0.1596 -0.6155 -1.8548 3.0654 -1.8768 0.2726 -0.9218 -0.1078 -0.8315 2.0789 1.0403 0.4251 -2.0835 2.2745 2.0195 -4.0403
1.5438 0.2536 -6.6933 -0.6626 -4.6082 2.8721 -2.7073 -3.2465 2.8968 -0.6073 3.1616 1.4845 -1.3741 3.1632 -0.6554 -2.4411 0.0515 1.4868 -0.7003 0.0457 5.7839 -0.4578 -2.1620 2.8064 1.2124 1.3821 -0.3878 -0.1780 0.5377 1.4147 1.9089 -0.6190 -5.6290 -0.1585 -0.1708 4.2217 1.9040 -0.3973 -2.0175 0.9986 1.6932 -2.8445 2.1051 -0.8408 -3.2724 1.1875 1.2036 -4.1957 -1.2692 -3.3137 3.3533 -0.1944 1.2240 0.1463 -1.0387 -0.8255 3.2055 -0.8041 2.5975 0.2688 -1.3096 -0.0296 1.9593 1.3159 0.9137 -1.7954 1.7268 -0.0142 -4.4090
3.0955 0.9770 -6.2627 -2.1502 -4.1463 3.4192 -2.7484 -2.1677 2.0965 0.2580 2.8804 -0.0161 -1.8693 2.0955 0.2314 1.4566 0.3471 2.6778 -0.4500 0.0851 6.3033 -0.6010 -2.2372 3.3530 -0.3932 -0.2816 -1.0003 -0.4445 -0.0410 1.4106 1.7451 1.3258 -5.9815 0.2603 -0.6819 5.0056 -0.5616 0.7833 -3.2560 1.5474 -0.1946 -2.5728 -0.0477 1.1382 -4.4472 2.1080 0.2053 -3.8522 -2.0578 -2.6417 3.3532 0.0244 0.5653 0.1867 -0.4385 -0.7659 3.6829 -0.6663 1.9006 0.1446 0.3201 -0.0999 2.5582 0.2718 0.1100 -2.2733 1.3414 0.8443 -4.7609
2.2309 2.2808 -6.5888 -2.6767 -0.4267 5.7767 -0.4298 0.3720 5.1616 -2.1979 0.2560 -1.6956 -2.4358 1.1949 0.3674 -1.0220 -2.5732 0.6480 0.1844 -4.2596 4.1593 -1.7172 -1.0624 3.5981 0.6057 1.2379 -0.4495 -0.2678 -0.4285 1.0981 3.0073 1.6739 -5.5611 -0.9367 -3.3499 3.3264 2.3924 0.6820 -2.1348 0.5692 2.1389 -2.7710 2.9488 0.7940 -3.3559 1.1737 2.2708 -4.0848 -1.4013 -0.7773 5.0494 -0.3580 0.0799 -0.2583 -0.6514 -1.9242 2.9452 -1.7668 0.5816 -0.4504 -0.6857 -1.7013 1.4456 1.1333 1.3470 -1.8403 2.3013 1.5936 -4.3852
2.9514 3.0818 -5.8575 -1.6767 -1.9433 6.0305 -1.5274 0.5031 5.8849 -2.0134 2.0125 -1.1412 -2.9781 -0.0508 -1.0806 1.0715 -0.6744 1.8091 -1.1717 -4.4342 3.0217 -1.6194 -0.8253 3.8117 0.0770 -0.4987 -1.3514 -1.0251 -0.5851 0.8258 3.5402 2.4251 -4.7400 -1.5625 -2.8979 2.5069 2.3096 0.5278 -1.9146 0.4247 0.8674 -3.3951 3.1209 1.2083 -2.7466 1.2958 1.6079 -4.2885 -1.1080 -0.7925 5.2347 -0.6929 0.2738 -0.2934 -0.7562 -1.7148 2.9439 -2.0262 0.6843 -0.8629 -0.1304 -0.9301 1.8165 0.9012 0.3686 -2.2397 2.5955 1.7868 -3.9742
4.5685 1.3627 -3.7377 0.6466 -0.1637 5.0833 0.6262 -2.5858 4.7059 -0.3707 2.3835 0.8339 -2.2387 3.3411 -0.0366 -3.1567 -0.6197 1.6360 -1.1769 -4.2080 0.8825 0.0078 -1.0295 2.8739 -1.5745 0.8662 -1.8749 -1.2768 -0.0673 0.3951 3.8194 0.1956 -3.4210 -0.4471 -2.7480 1.2148 0.3745 -0.5223 -2.6138 0.6504 1.8740 -2.3862 1.6522 -0.6609 -3.0099 2.0402 1.7196 -2.7756 -0.0618 -1.2857 4.3620 -1.8671 0.9849 -0.3898 -1.0946 -1.7409 2.1163 -1.5359 2.3549 0.1438 -1.9621 -0.7460 1.3802 -0.1408 0.7920 -2.2696 2.5178 0.5032 -3.1124
1.9693 -2.0212 -4.9357 -1.6855 -3.4120 1.0999 -0.0106 -2.9581 -0.6469 -0.8841 3.9646 1.7690 -2.7272 2.6375 1.5480 0.9867 0.9967 2.7537 -0.4751 -1.9070 5.2863 0.3573 -2.0981 1.6326 -1.0505 1.9430 -0.8736 -0.7225 0.6891 1.2160 2.4814 -0.8652 -4.2831 0.4600 -1.4831 3.9737 1.1706 1.6549 -2.0518 -0.6102 0.0522 -2.4065 1.9872 0.9739 -2.8768 0.2699 -0.6859 -3.2930 -0.6862 -2.4063 0.5834 -0.5989 1.9777 0.5756 -0.1710 -1.1211 2.6650 -1.5451 2.8633 1.3342 0.1282 0.2929 2.2303 -0.1683 1.1575 -1.7795 1.5245 -0.2452 -3.5210
2.1340 -1.1850 -6.1274 0.1016 -4.4966 2.4474 -2.0906 -3.4298 2.2106 -1.7910 2.8705 -0.4510 -0.6693 3.2468 1.4970 -2.4591 -0.2393 1.5537 -1.2275 0.4688 5.6496 -0.0925 -2.1078 2.9619 1.0656 1.3563 -0.3239 -0.2581 0.4893 1.5072 1.7846 0.1561 -5.8004 -0.3402 -0.1103 4.3631 0.7945 1.8705 -2.7720 1.7438 -0.2509 -2.0893 0.9797 1.5708 -4.0712 1.9602 -0.5663 -3.4892 -0.8116 -3.4375 3.0150 -0.3276 1.1824 0.2427 -0.9903 -0.9400 3.3018 -0.9132 2.5404 0.5304 -1.3299 -0.1978 2.0358 1.1693 0.9146 -1.7411 1.5673 0.2949 -4.4506
4.5079 -0.1509 -4.0302 0.9445 0.2410 3.5652 2.3969 -1.7210 3.8348 -3.5795 2.1811 -0.6217 -2.9112 2.2131 1.5537 -1.8350 -1.7389 -0.0659 -3.0723 -3.4609 3.0070 0.4680 -1.8517 2.3185 -0.4242 2.0429 -0.5277 -1.1480 0.2352 0.9315 3.1654 0.0841 -4.4413 -1.5662 -3.1634 2.3582 0.2316 1.5393 -2.9097 1.7527 0.9919 -1.1091 1.1293 1.1394 -3.8300 2.7027 0.5157 -2.0989 0.9733 -1.2679 3.6176 -1.5529 1.1044 -0.1463 -1.0423 -1.7669 2.2170 -2.7206 1.8945 0.3889 -1.3869 -1.1225 0.8958 0.5452 1.4465 -1.4924 2.4216 0.6151 -3.4148
1.4518 -1.5459 -5.4805 -0.2990 -4.1213 1.7363 1.4656 -3.1322 0.3409 -2.2594 3.7832 0.6293 -0.8025 3.3680 2.3289 -2.7183 0.0003 1.2471 -1.6182 -1.5988 5.1027 0.3080 -1.7252 1.9837 0.4435 2.3470 -0.4239 -0.5649 0.8600 1.2381 2.2703 -1.3136 -4.3398 -0.8657 -0.7483 3.8826 1.8618 0.4344 -1.2055 0.3072 1.4452 -2.7598 2.2570 -0.4587 -2.1309 0.7620 0.5031 -3.7720 0.1397 -2.8700 1.0136 -0.8155 1.9596 0.3342 -1.0192 -1.1703 2.4548 -1.2457 3.1025 1.2207 -1.5349 -0.0619 1.5709 0.8155 1.3967 -1.5140 1.6610 -0.4538 -3.4574
3.9319 -0.2270 -5.4656 0.7931 -3.4530 3.5830 -1.3076 -4.6748 3.1994 0.1306 3.2831 0.1612 -2.0035 2.7216 0.7257 0.6857 0.6009 2.7243 -2.6726 0.5490 5.0008 -1.1872 -2.2799 2.6719 -0.8902 0.5344 -1.2684 -0.9368 0.1629 1.1257 2.8348 0.6784 -5.5270 -2.4502 -0.4236 3.6651 0.1836 1.6218 -3.2562 1.0158 -0.5167 -2.4925 1.0867 1.6539 -4.2534 1.9732 -0.4969 -3.5859 -0.7131 -3.3525 3.6221 -0.3901 1.0042 0.0836 -1.0829 -0.9030 3.2863 -0.8830 2.4035 0.3575 -0.3374 0.0256 2.3612 0.1741 0.5174 -2.3109 2.0450 0.5710 -4.4078
4.0724 3.0456 -5.1923 -1.0169 -2.6732 6.0238 -0.3653 -0.3911 6.6415 -2.6862 0.0150 -0.6878 -1.5551 1.8787 -1.3273 -0.7302 0.8723 2.3681 -2.4735 -3.7808 2.5903 -1.3770 -0.7945 4.4374 0.3526 -0.7119 -1.4753 -0.6022 -0.8090 0.7827 2.8800 2.3435 -5.5242 -2.4331 -2.1207 2.7367 0.3914 0.4904 -3.6773 2.3806 0.5126 -2.3033 0.9861 1.2548 -4.6109 3.0411 1.2993 -3.3357 -0.4637 -1.3708 5.4950 -0.3167 0.0562 -0.3477 -1.1534 -1.4067 3.0623 -1.5638 0.7564 -0.8370 -0.8177 -0.3140 2.0590 1.0947 0.1424 -2.4521 2.3558 1.7054 -4.4259
1.9014 1.1611 -6.7254 -1.3952 -3.8965 4.1500 0.6755 -3.8514 2.8170 -1.1781 2.8754 -0.6695 -0.1879 2.9823 1.3798 -2.6769 -0.2301 1.1596 -2.6601 -0.0372 5.6038 -0.3975 -1.7375 3.4450 1.2156 0.7431 -0.3376 -0.4125 0.2161 1.3923 1.9904 0.0036 -5.9005 -1.6687 0.1746 4.2793 1.3777 -0.6906 -2.4011 1.5940 1.7096 -2.6023 1.5508 -0.8489 -3.7270 1.8007 1.5395 -4.0301 -0.6521 -3.1724 3.0529 -0.2240 0.8918 0.1240 -1.6064 -0.8615 3.2003 -0.5051 2.3491 0.3838 -1.6340 -0.2732 1.8096 1.3555 0.6415 -1.8188 1.7368 0.3115 -4.5852
2.5472 -0.5827 -6.3436 -0.7366 -4.0895 3.8287 1.2002 -3.6296 2.3786 -1.7861 2.7346 -0.7076 -0.8279 3.1114 1.3230 -2.7240 -0.3668 1.3318 -2.3768 -0.5966 5.7533 -0.0882 -1.7558 3.2912 0.9792 1.0835 -0.3142 -0.5247 0.3572 1.4486 1.8406 0.5655 -5.8873 -1.5323 -0.1237 4.3952 1.0008 1.9686 -2.6652 1.6423 -0.3272 -2.2629 1.2763 1.8501 -3.9769 1.9036 -0.4684 -3.6874 -0.1830 -3.1683 2.7681 -0.4644 0.9993 0.1508 -1.4162 -1.0367 3.2148 -1.0144 2.3904 0.3541 -1.6322 -0.3338 1.8957 1.1613 0.8311 -1.7732 1.7554 0.5874 -4.5156
4.4921 1.9039 -5.1846 -0.0351 -2.1644 6.4710 0.6110 -3.0713 4.2846 -2.6003 1.3932 -0.2361 -0.7875 2.6545 -0.7679 -0.0252 0.5506 2.5745 -4.0682 -2.2641 2.7213 -0.9795 -1.1617 4.4426 -0.2903 -0.4368 -1.5361 -1.0378 -0.5187 0.7909 3.0942 1.8666 -5.4483 -2.9774 -1.0582 3.0890 0.1537 1.0073 -3.5365 2.0149 -0.1010 -2.4611 0.9720 1.5869 -4.4330 2.8945 0.4851 -3.4615 -0.5233 -2.4576 5.0703 -0.4577 0.3260 -0.2347 -1.5003 -1.3127 3.0222 -1.2756 1.5806 -0.4391 -0.7746 -0.3181 2.1340 0.6961 0.1672 -2.4801 2.4043 1.3426 -4.3815
3.3652 -0.6072 -4.7675 1.4157 -0.1638 2.8817 2.6063 -2.2637 2.4044 -3.4260 2.9125 -0.2150 -2.5809 2.7048 1.8909 -2.5088 -1.1715 -0.0231 -3.0414 -3.3341 2.9629 0.3497 -1.9286 1.4999 -0.3384 2.3021 -0.3909 -1.2649 0.4991 0.9927 3.4377 -0.6884 -3.3489 -1.7479 -3.0596 1.9466 1.7448 0.9402 -0.6066 0.4627 1.4402 -2.5990 2.6622 0.2664 -1.3229 1.4390 0.6903 -3.3703 1.2545 -1.6510 2.6763 -1.5695 1.5167 0.0176 -1.1036 -1.7099 1.8666 -2.5438 2.4369 0.6992 -1.7117 -0.7972 0.8316 0.5893 1.5289 -1.2629 2.5099 0.1372 -2.7632
3.2162 1.8098 -6.2870 -0.0221 -4.2291 4.1751 -1.4800 -2.7838 5.5201 0.1327 2.8898 -0.3201 -2.0333 2.2012 -0.1284 0.0076 0.9739 2.8548 -3.9904 0.0821 4.0189 -1.0387 -2.2572 3.1155 -0.3589 -0.1520 -1.3301 -0.9157 -0.1138 1.0243 3.5192 0.7871 -5.3427 -2.9838 -0.7863 3.0150 1.9764 -0.3817 -2.2794 0.3243 0.9691 -3.4255 2.8814 -0.1474 -3.2496 1.2925 1.2073 -4.4774 -0.4624 -2.8033 4.4038 -0.2014 0.5936 -0.0181 -1.5072 -0.8260 3.2526 -0.8371 1.9543 -0.1478 -0.7085 0.1002 2.3712 0.6513 0.2145 -2.3611 2.5378 0.6978 -4.3842
2.7422 2.1545 -6.3972 -0.3308 -0.8559 5.8206 0.0779 -3.2729 5.6042 -1.1854 2.1568 -1.0159 -2.2606 0.1553 -1.2168 -1.4495 1.0791 2.5080 -4.4236 -1.8445 2.3855 -0.6754 -1.9922 3.6438 0.8003 -0.4664 -0.8598 -0.7073 -0.5510 1.0316 3.3712 2.2411 -5.1225 -2.7836 -2.1486 2.3956 2.5068 1.1782 -1.7673 0.9901 0.0443 -3.2717 3.0953 1.8153 -2.7986 1.6329 0.7167 -4.3839 -0.7891 -2.1256 5.1441 -0.1594 0.3247 0.0138 -1.8318 -1.2083 3.0652 -1.3302 0.8251 -0.7953 -1.3121 -0.0989 2.1866 1.3924 0.2760 -2.0089 2.6297 1.5973 -4.1609
3.0072 1.4477 -6.1433 1.7890 -2.0781 4.3205 0.3725 -0.0919 4.6329 -2.4597 1.0537 -1.6056 -2.3861 2.1348 0.4007 -1.8331 -2.1532 0.6202 -4.3706 -1.4727 3.7165 -0.5569 -2.1631 3.5794 0.5114 1.2718 -0.2260 -0.8977 -0.1003 1.1833 3.4058 0.6455 -5.0379 -2.9617 -2.2422 3.2693 2.3756 0.2972 -1.5914 0.8119 1.8328 -2.6270 3.0712 0.1894 -2.7382 1.5419 1.6888 -3.8724 0.6562 -1.2719 3.7349 -0.7424 0.4248 -0.1509 -1.7317 -1.4596 2.9313 -1.9380 1.3082 -0.3796 -1.5021 -1.3125 1.4489 1.1944 1.1406 -1.5388 2.6429 0.9099 -3.9270
2.8993 2.4225 -6.2924 1.0802 -1.9080 5.5950 -1.0545 -0.7562 5.9398 -1.6939 0.4358 -2.1243 -2.2258 1.5698 -0.2217 -1.8593 -2.1962 0.8072 -4.4210 -1.2500 3.5645 -0.5876 -1.9640 3.7903 0.9308 0.8490 -0.3605 -0.6444 -0.2483 1.1387 3.2358 1.2750 -5.5196 -2.9537 -2.0200 3.4032 2.0345 -0.1419 -2.4161 1.5516 2.2269 -2.3300 2.5318 -0.0247 -3.6621 2.1319 2.3618 -3.6551 -0.0118 -1.1214 4.9087 -0.3397 0.0187 -0.2572 -1.7056 -1.2717 3.0331 -1.5160 0.7773 -0.8223 -1.4130 -1.3233 1.5470 1.4797 1.0194 -1.7386 2.5507 1.2696 -4.3277

>  <OB_ATOM_TYPES> (1atlB1)
C.3 C.3 C.3 O.co2 O.co2 O.2 S.2 C.3 C.3 N.am O.3 C.2 C.ar C.ar C.ar C.ar C.3 C.3 C.3 C.2 C.2 C.ar C.ar

>  <ENSEMBLE_RMSD> (1atlB1)
0.000 1.595 1.726 1.728 1.737 1.794 1.806 1.850 1.862 1.879 1.921 1.958 1.966 1.974 1.975 2.026 2.042 2.086 2.154 2.186 2.188 2.215 2.228 2.234 2.244 2.248 2.258 2.279 2.298 2.364 2.374 2.399 2.415 2.422 2.452 2.479 2.508 2.592 2.700 2.743 2.747 2.756 2.757 2.801 2.802 2.803 2.812 2.844 2.868 2.909

$$$$
