
 OpenBabel03071213D

 13 13  0  0  0  0  0  0  0  0999 V2000
   32.4510   14.0020  -22.1390 C   0  0  0  0  0
   36.4910   17.6300  -15.9610 N   0  0  0  0  0
   32.5820   14.4290  -19.8630 O   0  0  0  0  0
   34.6720   16.0100  -15.7230 O   0  0  0  0  0
   34.1710   18.4170  -15.6930 O   0  0  0  0  0
   33.7590   15.8350  -21.2140 N   0  0  0  0  0
   34.0480   15.8110  -18.6090 S   0  0  0  0  0
   35.0660   17.6270  -20.0430 N   0  0  0  0  0
   35.1880   18.0710  -18.7670 N   0  0  0  0  0
   32.9390   14.7710  -20.9940 C   0  0  0  0  0
   34.4370   16.4480  -20.1450 C   0  0  0  0  0
   34.7630   17.1930  -17.9380 C   0  0  0  0  0
   34.9540   17.3730  -16.1930 S   0  0  0  0  0
  1 10  1  0  0  0
  2 13  1  0  0  0
  3 10  2  0  0  0
  4 13  2  0  0  0
  5 13  2  0  0  0
  6 10  1  0  0  0
  6 11  1  0  0  0
  7 11  1  0  0  0
  7 12  1  0  0  0
  8  9  1  0  0  0
  8 11  2  0  0  0
  9 12  2  0  0  0
 12 13  1  0  0  0
M  END
>  <MOLID> (1azmA1)
1azmA1

>  <SMILES_CANONICAL> (1azmA1)
CC(=O)Nc1nnc(s1)S(=O)(=O)N	

>  <FINGERPRINT> (1azmA1)
0000000001000100000000000000000000000000000001000000000000001001000000000000000000000000010000000000000000111000000001000000000000000000000000000000000000000000000000001000000000000100000000010000000000000010100000010000000000010000000000000000000000010000000000000000000000000001000000000001000010000000100000000000001000000000001100000010000000000000010000000000000000000100100000001001000000000000100001000000010000000000000001100000000000000001100000000000010000100000000000000000000000000000010000000000110101000000000000000000000000000000000000000000000001000010000000000000000000000010000000000010000000000000001000000100000000000000000000000000000000000000100000000000000000110000000101101001000000100000010000000000000000000000000000000000000010000000000000000010000000000000000000000000000000101100000000000000000000000000001001000000000000000000000001000000000000000001000001000100110000010000000000000000000000001000000000000000010100000000000010010000000000000100000000100000000000000000000000010000001001101000

>  <MACCS166> (1azmA1)
000000000000000000000000000000011001000000000010001100100111100110100000100011111011000100010111100001000100010100001011100100000110101110011100010110100101011110011000

>  <OB_MW> (1azmA1)
221.988

>  <OB_logP> (1azmA1)
0.998

>  <OB_PSA> (1azmA1)
151.66

>  <OB_MR> (1azmA1)
45.2161

>  <OB_ATOMIC_CHARGES> (1azmA1)
0.0968599021 0.0412870176 -0.2729111087 -0.1482576235 -0.1482576235 -0.1528070801 -0.0087412678 -0.1222015226 -0.1188714429 0.2478189753 0.2092620371 0.2590210213 0.1177987156

>  <MCT_HBD> (1azmA1)
2

>  <MCT_HBA> (1azmA1)
7

>  <ENSEMBLE_TOTAL> (1azmA1)
5

>  <ENSEMBLE_COORDS> (1azmA1)
-1.8198 -2.4301 -3.4250 2.2202 1.1979 2.7530 -1.6888 -2.0031 -1.1490 0.4012 -0.4221 2.9910 -0.0998 1.9849 3.0210 -0.5118 -0.5971 -2.5000 -0.2228 -0.6211 0.1050 0.7952 1.1949 -1.3290 0.9172 1.6389 -0.0530 -1.3318 -1.6611 -2.2800 0.1662 0.0159 -1.4310 0.4922 0.7609 0.7760 0.6832 0.9409 2.5210
-0.3580 -2.6763 -2.1566 2.5076 1.2298 2.6790 -2.5397 -1.9913 -2.8351 0.6177 -0.4575 3.0987 0.0745 2.0129 3.0009 -1.0073 -0.3515 -2.3402 -0.7435 -0.2899 0.3182 0.6745 1.0335 -1.3510 1.1386 1.3934 -0.0985 -1.4214 -1.6595 -2.4477 -0.2909 0.1431 -1.2745 0.5040 0.7455 0.8503 0.8438 0.8680 2.5565
-0.3764 -2.6736 -3.2425 2.0847 -0.2739 2.9012 -2.1697 -2.2645 -1.7166 -0.2972 0.5962 3.1997 1.5530 2.2049 2.6460 -0.7982 -0.5046 -2.3919 0.0554 -0.6373 0.1528 -0.1592 1.4925 -1.2366 0.3035 1.8993 0.0043 -1.2141 -1.8196 -2.3431 -0.3539 0.1916 -1.2867 0.4415 0.8861 0.8251 0.9307 0.9030 2.4882
-1.8047 -1.2905 -4.0988 2.1763 2.3288 2.3542 -0.6279 -2.6693 -2.5446 1.3069 0.1428 3.3870 -0.2956 2.0543 2.9841 -1.4289 -0.5790 -1.8766 -1.1392 0.4367 0.5127 0.8009 -0.4248 -0.9246 1.3780 0.0616 0.2370 -1.1916 -1.6040 -2.7696 -0.5058 -0.2828 -0.9030 0.4721 0.5561 1.0491 0.8596 1.2701 2.5931
0.2625 -2.2765 -2.4943 2.0434 -0.3541 2.7624 -2.0730 -2.5510 -2.8697 -0.1758 0.8098 3.3367 1.7709 2.1839 2.5127 -1.3665 -0.5184 -2.0761 -0.4135 -0.5739 0.4052 -0.1163 1.3514 -1.2518 0.4702 1.7800 -0.0736 -1.1659 -1.8194 -2.4753 -0.6046 0.1357 -1.1370 0.3750 0.8730 0.8694 0.9934 0.9595 2.4915

>  <OB_ATOM_TYPES> (1azmA1)
C.3 N.3 O.2 O.2 O.2 N.am S.2 N.ar N.ar C.2 C.ar C.ar S.O2

>  <ENSEMBLE_RMSD> (1azmA1)
0.000 0.822 0.944 1.187 1.237

$$$$
