
 OpenBabel03071213D

 21 22  0  0  0  0  0  0  0  0999 V2000
   13.4830   27.8660   19.5480 C   0  0  0  0  0
   20.2940   32.0990   15.2370 C   0  0  0  0  0
   19.1280   34.0930   16.3520 C   0  0  0  0  0
   19.2050   30.2030   18.6780 C   0  0  0  0  0
   15.9370   29.3790   16.6490 C   0  0  0  0  0
   18.2250   28.1370   18.2290 O   0  0  0  0  0
   16.5220   30.5380   20.1960 O   0  0  0  0  0
   15.4900   27.8360   21.9150 O   0  0  0  0  0
   17.6700   27.4310   20.9740 C   0  0  0  0  0
   18.5880   28.5720   20.4750 C   0  0  0  0  0
   16.5040   32.3050   16.3030 C   0  0  0  0  0
   14.4270   28.9280   19.6360 O   0  0  0  0  0
   15.1510   31.1840   18.0150 O   0  0  0  0  0
   17.8900   31.9910   15.7230 C   0  0  0  0  0
   16.3780   31.7350   17.7160 C   0  0  0  0  0
   15.7710   28.4430   19.5940 C   0  0  0  0  0
   18.9960   32.7290   15.6960 C   0  0  0  0  0
   16.2180   27.8810   20.9580 C   0  0  0  0  0
   18.1600   29.1560   19.1370 C   0  0  0  0  0
   16.2140   30.2120   17.8920 C   0  0  0  0  0
   16.7080   29.6260   19.2260 C   0  0  0  0  0
  1 12  1  0  0  0
  2 17  1  0  0  0
  3 17  1  0  0  0
  4 19  1  0  0  0
  5 20  1  0  0  0
  6 19  1  0  0  0
  7 21  1  0  0  0
  8 18  2  0  0  0
  9 10  1  0  0  0
  9 18  1  0  0  0
 10 19  1  0  0  0
 11 14  1  0  0  0
 11 15  1  0  0  0
 12 16  1  0  0  0
 13 15  1  0  0  0
 13 20  1  0  0  0
 14 17  2  0  0  0
 15 20  1  0  0  0
 16 18  1  0  0  0
 16 21  1  0  0  0
 19 21  1  0  0  0
 20 21  1  0  0  0
M  END
>  <MOLID> (1b59A1)
1b59A1

>  <SMILES_CANONICAL> (1b59A1)
CO[C@@H]1C(=O)CC[C@@]([C@@]1(O)[C@@]1(C)O[C@@H]1CC=C(C)C)(C)O	

>  <FINGERPRINT> (1b59A1)
0000000000000101000000000100000010000001000000000000000000000000000000000000000000000000000000000000000000000001000000010000000000000000001010000000000011000000000000000000000000000000000000000000000000000000000000000000000000000000000000000000010000000000000000000000000000000000000000000000000100010000000000000000100000000000000000000000001000000000010000000000000011010000000000000001010000000010100000000010100000000010100000000000000000000000000000000000000000000100000001000000000000001000100100000000100000000000100000000000000000000000100000000000000000000001000000000001001101000000001000000000000000000000000000001010000000000001000000000000000000000000001000000001000000000000000100100000000000000101000000001010000000000000000010000000000000000000000100000000000000000000000001000000000000000000000000000000000000000000000000000100000001000000000000001000000000000000000000000010000000000000000000000000001000000000000000000000000000000000000000000010010000000010000000000000000000000000000000000000000000000000

>  <MACCS166> (1b59A1)
000000000000000100000100000000000000000000000000010001001000010001000001010100000000000011101000001000010001000100110101000001100011000110111010011011010110101100111000

>  <OB_MW> (1b59A1)
298.178

>  <OB_logP> (1b59A1)
1.3602

>  <OB_PSA> (1b59A1)
79.29

>  <OB_MR> (1b59A1)
79.1316

>  <OB_ATOMIC_CHARGES> (1b59A1)
0.1747032081 0.0260269987 0.0260269987 0.0356862421 0.0348757139 -0.2229467826 -0.2176244871 -0.2934297841 0.0697640376 0.0409021042 0.0574127153 -0.343475333 -0.3532029404 -0.0319837049 0.146665847 0.2044300288 -0.0477661839 0.180184475 0.1575331072 0.1483534434 0.2078642959

>  <MCT_HBD> (1b59A1)
2

>  <MCT_HBA> (1b59A1)
5

>  <ENSEMBLE_TOTAL> (1b59A1)
50

>  <ENSEMBLE_COORDS> (1b59A1)
-3.2616 -0.6822 1.8856 3.4380 3.0280 -3.4299 1.1694 3.8262 -4.2084 2.0934 0.1610 0.8762 -0.7070 -0.6654 -1.6959 1.4139 -1.8973 -0.0841 -0.5981 0.4172 1.9283 -1.8320 -3.0161 3.0163 0.4708 -2.9327 2.4196 1.3278 -1.6918 2.2856 -0.0331 2.2459 -1.9404 -2.6838 -1.4407 0.8324 -1.6602 1.1903 -0.4463 1.4182 2.3355 -2.2402 -0.3197 1.6592 -0.6086 -1.3209 -1.6991 1.0508 1.9653 3.0299 -3.2394 -0.9786 -2.5645 2.2560 1.1012 -0.9812 0.9589 -0.6327 0.1837 -0.4720 -0.3703 -0.5060 0.8554
-3.2767 -1.8535 0.0711 3.1659 2.4878 -3.5821 0.8503 1.7280 -4.2476 2.1314 0.4384 1.0453 -0.6855 -0.2294 -1.5915 1.5203 -1.5410 -0.1082 -0.5752 0.4954 2.1163 -1.6912 -2.8139 3.0256 0.5847 -2.8178 2.3193 1.4414 -1.5691 2.2682 -0.1305 2.7170 -1.5955 -2.5813 -1.1734 1.1061 -1.6446 1.4777 -0.1456 1.2798 2.7993 -2.0503 -0.3226 1.9945 -0.3130 -1.2170 -1.5437 1.0184 1.7291 2.3607 -3.2301 -0.8612 -2.4150 2.2132 1.1825 -0.7405 1.0179 -0.5974 0.5038 -0.2954 -0.3021 -0.3053 0.9578
-3.4980 -1.8325 0.4438 3.3720 2.9469 -3.6939 1.1621 4.1426 -3.9430 1.3908 -1.9854 -0.2182 -0.9663 -0.5806 -1.5674 2.0505 0.0175 0.8484 -0.4442 0.4428 2.0275 -1.7744 -2.6313 3.3370 0.4348 -2.9134 2.4921 1.3974 -1.7704 2.2438 0.0224 2.2270 -1.9241 -2.6561 -1.1035 1.3248 -1.5206 1.3794 -0.2351 1.4288 2.2162 -2.3987 -0.1574 1.6665 -0.5617 -1.3431 -1.6130 1.1819 1.9465 3.0604 -3.2939 -0.9744 -2.3913 2.4357 1.1074 -1.0455 0.9377 -0.6450 0.2457 -0.3680 -0.3331 -0.4779 0.9315
-3.5545 -1.6845 0.6961 1.9423 4.9155 -3.3226 2.9265 2.5951 -3.1575 2.2740 -0.3385 0.5201 -0.9073 -1.0617 -1.6229 1.1768 -2.3772 0.0054 -0.2236 0.5466 1.7317 -1.7845 -2.1261 3.5962 0.3469 -2.7715 2.7495 1.3970 -1.7780 2.2972 0.1729 1.5983 -2.4608 -2.6039 -0.8757 1.3735 -1.3787 1.1128 -0.6389 0.5136 3.0139 -2.7469 -0.0117 1.2933 -1.0200 -1.3512 -1.5289 1.2886 1.7291 3.4696 -3.0600 -1.0060 -2.1226 2.6458 1.1320 -1.2630 0.8885 -0.5426 -0.0562 -0.5835 -0.2471 -0.5612 0.8204
-3.0891 -0.2904 1.9888 3.2737 3.4266 -3.2635 1.2303 4.3660 -2.1146 1.3095 -2.2810 -0.2707 -1.0369 -1.0564 -1.7419 2.0553 -0.1451 0.4201 -0.3613 0.5228 1.6274 -1.7294 -2.5168 3.3857 0.4942 -2.7596 2.5722 1.4363 -1.6630 2.1210 -0.0947 1.6863 -2.5502 -2.6886 -1.2639 1.0351 -1.5688 1.0800 -0.7068 1.2858 2.0344 -2.9695 -0.2217 1.3246 -1.1164 -1.3358 -1.6166 1.1714 1.8847 3.2139 -2.7867 -0.9329 -2.2885 2.4788 1.1010 -1.1563 0.7258 -0.6845 -0.0531 -0.6953 -0.3273 -0.5638 0.6896
-3.2154 -0.7858 1.8441 3.0263 3.7379 -2.8177 2.4238 1.2875 -2.7730 1.5893 -1.6999 -0.2984 -0.8560 -0.8123 -1.8244 1.8686 0.4706 0.5873 -0.6774 0.5645 1.6969 -1.5079 -2.8211 3.1464 0.7526 -2.5600 2.4514 1.4820 -1.2717 2.1348 -0.4433 2.1122 -2.3280 -2.5937 -1.5876 0.8496 -1.8975 1.0532 -0.6660 0.6974 3.0506 -2.4905 -0.6118 1.6134 -0.9408 -1.2040 -1.6786 1.0330 1.9715 2.7006 -2.6879 -0.7326 -2.3665 2.3079 1.1163 -0.7256 0.7629 -0.7894 0.1347 -0.6741 -0.3989 -0.4163 0.6865
-3.2428 -0.9036 1.7567 3.1798 3.4100 -2.8614 2.0980 1.1551 -3.2187 1.6483 -1.5495 -0.2783 -0.7806 -0.6407 -1.8136 1.8395 0.5711 0.7449 -0.7404 0.5218 1.7857 -1.5079 -2.9502 3.0087 0.7627 -2.6013 2.3859 1.4631 -1.2759 2.1713 -0.4489 2.3201 -2.1327 -2.5624 -1.6278 0.7416 -1.9063 1.1225 -0.5768 0.8227 3.0715 -2.2896 -0.6315 1.7354 -0.7821 -1.1774 -1.6880 0.9686 1.9618 2.5652 -2.7685 -0.7231 -2.4349 2.2157 1.1190 -0.6547 0.8260 -0.7712 0.2385 -0.6087 -0.4023 -0.3845 0.7252
-3.1555 -0.3902 1.8716 2.1173 4.7624 -3.1194 2.9055 2.4330 -2.5326 1.4553 -2.2524 -0.1033 -0.8305 -1.1874 -1.7591 2.0627 -0.0688 0.5596 -0.4427 0.5404 1.5850 -1.7921 -2.5297 3.3734 0.4828 -2.6816 2.6997 1.4019 -1.5575 2.2697 0.0155 1.5649 -2.5979 -2.6676 -1.3633 0.9581 -1.5590 0.9417 -0.8376 0.4958 2.9460 -2.8598 -0.2025 1.2560 -1.1620 -1.3107 -1.6551 1.1684 1.7711 3.3448 -2.8392 -0.9539 -2.2774 2.5125 1.1327 -1.1103 0.8404 -0.6105 -0.1349 -0.7257 -0.3157 -0.5809 0.6984
-2.9931 0.0316 1.6738 0.7855 4.9535 -3.6681 2.4973 3.7190 -2.2811 2.4106 -0.5843 0.7899 -0.4755 -1.3295 -1.7154 1.2893 -2.5997 0.2400 -0.1483 0.4933 1.5871 -2.1608 -2.3023 3.2992 0.1087 -2.8416 2.8328 1.2239 -1.8726 2.5043 0.7740 1.2511 -2.5712 -2.6032 -1.0299 0.8139 -1.0280 0.9082 -0.9473 0.4619 2.5857 -3.1421 0.3804 1.0539 -1.1526 -1.3414 -1.5456 1.1504 1.2150 3.6830 -3.0307 -1.2167 -2.2048 2.5179 1.1829 -1.4331 1.0475 -0.2265 -0.2609 -0.7046 -0.1360 -0.6751 0.7563
-3.4179 -1.2373 0.2391 1.2049 5.2004 -3.5894 1.3492 2.9533 -4.7339 2.4614 -0.7940 1.0214 -0.3816 -0.9448 -1.5787 1.1816 -2.6272 0.2298 -0.0377 0.3798 1.9522 -2.1998 -2.1243 3.3961 -0.0770 -3.0296 2.8024 1.1533 -2.1777 2.5643 0.9941 1.6744 -2.0426 -2.5159 -0.6644 1.1746 -0.8384 1.1894 -0.5073 1.0379 3.1399 -2.2778 0.5801 1.2845 -0.6715 -1.3631 -1.4850 1.2129 1.1914 3.7200 -3.4704 -1.3001 -2.1878 2.5610 1.1643 -1.5609 1.1715 -0.1049 -0.0452 -0.4221 -0.0819 -0.6635 0.9684
-3.4262 -1.1076 0.2840 1.4262 5.1818 -3.4844 0.6453 3.0807 -4.6486 2.4766 -0.9154 0.9391 -0.4261 -0.9384 -1.5946 1.1011 -2.6931 0.1819 0.0515 0.3625 1.9296 -2.1775 -2.0305 3.4272 -0.1139 -3.0354 2.7864 1.1469 -2.2397 2.5160 1.0717 1.6116 -2.0753 -2.4856 -0.5749 1.2047 -0.7589 1.2139 -0.5129 1.3316 3.0608 -2.2638 0.6597 1.2389 -0.6996 -1.3678 -1.4429 1.2203 1.1425 3.7264 -3.4058 -1.3039 -2.1413 2.5702 1.1518 -1.6261 1.1216 -0.0856 -0.0552 -0.4422 -0.0594 -0.6764 0.9463
-1.5079 -1.2242 3.7960 3.4730 2.9068 -3.4074 1.3082 4.1978 -3.2507 1.3694 -0.6914 2.6586 -0.7068 -1.0914 -1.4767 1.9471 -0.1044 0.4681 -0.4875 1.0789 1.6229 -2.3372 -3.2588 0.8850 -0.0304 -3.1127 1.4882 1.0093 -2.2648 0.7845 -0.0614 1.6155 -2.5604 -2.1701 -0.6609 2.6735 -1.7038 1.0342 -0.8425 1.3880 1.7498 -2.8544 -0.3618 1.4467 -1.1173 -1.5757 -1.0602 1.4721 2.0099 2.8917 -3.1574 -1.3978 -2.5452 1.2287 0.9480 -0.8059 1.2045 -0.6705 0.0769 -0.5505 -0.4419 -0.1785 0.9352
-2.7493 0.4107 2.5566 3.2412 3.1859 -3.0063 1.0163 4.1499 -2.3002 1.4592 0.1883 1.6978 -0.6677 1.6278 0.1305 1.9594 -1.0381 -0.2518 -0.5857 -2.1095 -0.5051 -1.9468 -3.1724 2.5544 0.3138 -2.4316 2.7971 1.2859 -2.2769 1.6446 -0.1992 1.4564 -2.8096 -1.4103 -0.0286 2.3803 -1.7529 0.1429 -1.4615 1.2360 1.7811 -3.0095 -0.4373 0.2217 -2.0211 -1.4337 -1.1033 1.4548 1.7884 2.9753 -2.7830 -1.0988 -2.3259 2.2842 1.0542 -0.9994 0.8486 -0.6721 0.2892 -0.5247 -0.4004 -0.9436 0.3236
-2.8763 0.2012 1.8131 1.9743 4.9945 -3.2993 -0.1621 3.7284 -3.7550 1.2051 -2.7608 0.0115 -0.6132 -1.0299 -1.7016 2.3179 -0.8683 0.8829 -0.0045 0.3566 1.7614 -2.3060 -2.3543 3.2005 -0.0936 -3.0612 2.6925 1.1265 -2.2071 2.4210 1.0472 1.3756 -2.3440 -2.5997 -0.8116 0.8550 -0.7289 1.1778 -0.6879 1.7292 2.6789 -2.5393 0.6758 1.0829 -0.9375 -1.3988 -1.4868 1.1312 1.2014 3.7334 -3.1672 -1.3480 -2.2733 2.4352 1.1196 -1.6264 1.0147 -0.1550 -0.1369 -0.5970 -0.1110 -0.7129 0.8097
-3.1500 -0.0649 2.1621 3.2013 3.1657 -3.4093 1.2847 4.1101 -2.0634 2.2072 -0.5091 0.1549 -0.7631 1.6278 0.2413 1.0236 0.2759 2.0492 -0.1526 -2.0267 -0.5607 -1.7704 -3.5021 2.2221 0.2767 -2.4334 2.8432 1.3646 -2.0677 1.8532 -0.2535 1.6098 -2.6950 -1.7523 -0.3055 2.2372 -1.7005 0.1162 -1.4194 1.1269 1.8900 -3.1632 -0.3923 0.3291 -1.9585 -1.4449 -1.3156 1.2908 1.8213 2.9968 -2.8882 -1.0420 -2.5177 2.1201 1.0539 -0.7805 1.0994 -0.6451 0.3196 -0.4641 -0.2933 -0.9179 0.3482
-2.2115 1.1933 2.0046 3.0415 3.3907 -2.5421 0.9740 4.2580 -1.3741 1.8721 -1.9965 -0.5869 -0.5208 -1.2379 -2.3882 1.5803 -0.0781 0.7583 -0.9219 -2.6458 -0.0432 -1.8051 -2.1441 3.3214 0.5261 -1.7212 2.9802 1.2898 -2.2243 1.7721 -0.4538 1.7682 -2.3346 -0.9801 0.5240 1.7731 -1.9260 0.2676 -1.0949 0.9686 2.0971 -2.6058 -0.6910 0.9924 -1.0914 -1.2852 -0.8113 1.3989 1.6106 3.1932 -2.1953 -0.9355 -1.6248 2.6274 1.0514 -1.3771 0.5249 -0.7231 -0.5201 -1.0936 -0.4605 -1.3034 0.1892
-1.9244 -1.5130 3.6221 3.4815 3.2164 -3.4756 1.3500 2.7804 -4.7580 1.1185 -0.7549 2.9462 -0.4107 -0.8180 -1.4431 1.9045 0.1391 0.9288 -0.7521 0.9745 1.8778 -2.0926 -3.4247 0.5509 0.1261 -3.1187 1.3761 1.1415 -2.1114 0.8785 0.0532 2.0443 -2.1661 -2.4554 -0.9714 2.4219 -1.6645 1.1306 -0.7003 1.4653 2.4782 -2.2985 -0.3457 1.6822 -0.7846 -1.6012 -1.2147 1.3449 2.0553 2.8055 -3.4507 -1.2579 -2.6540 1.0200 0.8943 -0.7233 1.4442 -0.5806 0.2346 -0.4001 -0.5051 -0.1816 1.0655
-3.1615 -0.7480 -0.0721 1.0676 5.1786 -3.4907 1.0670 2.8762 -4.5290 2.6071 -1.2369 1.2755 0.0677 -1.0793 -1.5963 1.1377 -2.8782 0.3955 0.2509 0.3493 1.9113 -2.4181 -1.7657 3.1964 -0.4069 -2.9893 2.8323 0.9547 -2.3387 2.7031 -0.2150 1.8519 -2.0260 -2.2773 -0.3159 0.9513 1.4254 0.7061 -0.6302 0.1557 3.2708 -2.2545 0.1401 1.3335 -0.6812 -1.2841 -1.3131 1.1055 0.7290 3.7382 -3.3663 -1.4584 -1.9812 2.4597 1.1956 -1.7854 1.3041 0.2935 -0.1569 -0.4468 0.1292 -0.7160 0.9585
-2.3459 0.9203 2.2945 3.0251 4.0419 -2.6642 0.7592 4.2151 -3.7607 2.0238 -1.9441 -0.2420 -0.1367 -0.9636 -2.2730 1.5357 -0.2164 1.2966 -0.8173 -2.6186 -0.1913 -2.2017 -2.6317 2.9188 0.1377 -2.1408 3.0825 1.0920 -2.4728 1.9515 -0.1603 1.9989 -1.9570 -1.1072 0.2886 2.0043 -1.6921 0.3922 -0.9870 1.2084 2.5653 -1.9583 -0.4762 1.1231 -0.7958 -1.3902 -0.9638 1.3942 1.6289 3.5489 -2.7578 -1.2478 -1.9772 2.5115 1.0478 -1.4600 0.8094 -0.4857 -0.3863 -0.9405 -0.3975 -1.3188 0.2643
-1.8074 -0.9171 3.7670 2.9150 4.1812 -3.6521 0.4279 3.9522 -4.0222 1.3036 -1.1187 2.8524 -0.4864 -1.2227 -1.4189 2.1359 -0.6761 0.7056 -0.1175 0.9346 1.6755 -2.6816 -3.0492 0.9951 -0.3916 -3.2778 1.6237 0.8099 -2.6349 0.9627 0.5499 1.3600 -2.5040 -2.2429 -0.3948 2.5202 -1.2093 1.0328 -0.8528 1.7172 2.2356 -2.7726 0.1894 1.2465 -1.0685 -1.5491 -0.9882 1.4654 1.6767 3.3876 -3.4472 -1.6309 -2.4911 1.3041 0.9806 -1.1808 1.3693 -0.3381 -0.0568 -0.5014 -0.2514 -0.3224 0.9989
-3.2328 -0.8402 -0.0048 1.2388 5.1132 -3.4398 1.4234 2.7345 -4.2687 1.2302 -2.9024 0.2504 -0.0988 -1.0237 -1.6379 2.4731 -1.1238 1.1877 0.2081 0.3573 1.8770 -2.3428 -1.7805 3.2581 -0.3190 -2.9636 2.8369 1.0275 -2.2987 2.6354 -0.3597 1.9116 -2.0090 -2.3279 -0.3724 0.9842 1.3287 0.7240 -0.7055 0.0723 3.3079 -2.2667 0.0517 1.3708 -0.6892 -1.3021 -1.3400 1.1159 0.8660 3.6858 -3.2719 -1.4080 -1.9873 2.4877 1.1919 -1.7435 1.2271 0.1926 -0.1252 -0.4845 0.0869 -0.7039 0.9174
-3.3045 -0.8020 0.1560 0.9783 5.2817 -3.1911 1.8388 3.0176 -3.9049 1.1095 -3.0104 0.2282 -0.2705 -1.1598 -1.6720 2.4710 -1.2503 1.0245 0.3065 0.3601 1.7488 -2.2324 -1.5820 3.3775 -0.3039 -2.8925 2.8932 1.0573 -2.2996 2.5916 -0.2998 1.7834 -2.1855 -2.3011 -0.3016 1.0271 1.3327 0.5157 -0.9039 -0.0883 3.2433 -2.3542 0.1114 1.2588 -0.8584 -1.3092 -1.3045 1.1538 0.8568 3.8035 -3.1131 -1.3626 -1.8787 2.5612 1.1688 -1.8109 1.1537 0.1495 -0.2325 -0.5830 0.0917 -0.7392 0.8506
-1.7048 -1.7354 3.4853 3.4686 2.5438 -3.0556 1.8267 0.7224 -3.6500 1.0707 -0.3247 2.8374 -0.5647 -0.5903 -1.5508 1.6685 0.7903 0.8688 -1.1014 1.0584 1.8126 -1.5628 -3.4674 0.3329 0.5642 -2.7693 1.1575 1.3581 -1.5592 0.7124 -0.2925 2.2996 -2.2211 -2.3489 -1.2066 2.3357 -1.9412 1.2469 -0.7506 1.1248 2.7235 -2.3600 -0.6689 1.8953 -0.8427 -1.5049 -1.2393 1.2229 2.0769 2.0299 -2.9900 -0.8895 -2.5693 0.8335 0.8446 -0.2737 1.3367 -0.7889 0.4279 -0.4847 -0.6346 -0.0029 0.9700
-2.6356 0.8651 1.5709 2.5334 4.1489 -3.5352 0.8375 4.5261 -1.6982 2.1807 -1.7544 0.1093 -1.9899 -0.5633 -1.4502 1.3968 0.1801 1.2227 -0.5016 -2.7168 -0.0385 -2.0979 -2.0024 3.5153 0.0433 -2.7167 2.7597 1.2109 -1.8553 2.3461 -0.1490 1.7001 -2.2253 -1.3785 0.2759 1.8695 0.3809 -0.6707 -1.9385 0.9520 2.3807 -2.9520 0.3166 0.6179 -1.3184 -1.4161 -1.0655 1.4110 1.4019 3.6172 -2.7315 -1.2313 -1.9242 2.6492 1.0788 -1.1892 0.9822 -0.6007 -0.5103 -0.8997 -0.3320 -1.3433 0.3518
-2.5938 -0.6572 2.8349 2.8721 3.3065 -4.6920 1.5022 4.5891 -3.0019 2.1009 -0.1232 1.1685 -1.0865 1.5225 0.4410 0.2710 0.2188 2.6288 0.4065 -1.8649 -0.3834 -1.7699 -3.9110 1.6725 -0.1598 -2.6656 2.9301 1.0822 -2.0033 2.3682 0.3079 1.9754 -2.1415 -2.5324 -0.7851 1.4232 -1.1557 0.1181 -1.5484 1.3259 2.1212 -3.2103 0.1915 0.5996 -1.5985 -1.4939 -1.6214 0.9907 1.8629 3.2787 -3.6031 -1.1801 -2.8458 1.8363 0.7828 -0.6859 1.6618 -0.5156 0.3500 -0.2819 -0.2183 -0.9164 0.5049
-0.0872 0.9034 2.6257 2.5104 4.8088 -2.0987 1.3344 3.7185 -4.0503 1.7674 -0.7513 0.8518 -0.4382 -1.1715 -2.3182 1.2924 -2.6423 -0.4624 -1.4488 -2.5030 -0.0578 -2.2596 -1.8689 3.3791 0.0883 -2.1687 3.0370 0.7226 -2.7904 1.8115 0.1580 1.7526 -2.0990 -1.1435 0.6416 1.7169 -1.6831 0.5078 -1.0835 1.0767 2.8599 -1.7355 -0.3472 1.0006 -0.9256 -1.3476 -0.7240 1.4714 1.6047 3.7392 -2.5896 -1.2732 -1.6326 2.6863 0.7652 -1.8593 0.6072 -0.6419 -0.4791 -1.0103 -0.6498 -1.3415 0.2440
-3.5098 -1.1291 0.9837 1.7900 2.8458 -5.3353 2.9386 2.9622 -3.0863 -0.0619 0.4252 3.0135 -1.2651 1.6029 0.6314 1.8912 0.3138 1.6937 0.8188 -1.4652 -0.1447 -1.1533 -3.9822 1.3447 -0.0491 -2.6132 2.9642 1.1271 -1.7058 2.6633 0.2661 2.3388 -1.8254 -2.2945 -1.0207 1.7112 -0.9947 0.2890 -1.3915 0.5099 2.4748 -3.2842 0.2791 0.9377 -1.3325 -1.2794 -1.6254 0.9295 1.6840 2.7494 -3.8566 -0.8438 -2.8484 1.7071 0.6977 -0.4033 1.9986 -0.4765 0.5534 -0.0746 -0.0746 -0.6999 0.6902
-1.8052 1.4246 1.8644 1.5005 4.9913 -2.0053 2.4699 2.7540 -2.6644 1.8765 -2.5647 -0.0899 0.0511 -1.3637 -2.3032 1.8124 -0.2880 0.5332 -0.9147 -2.6830 0.0347 -2.0784 -1.5541 3.4369 0.0193 -2.4923 2.7889 1.2486 -1.8606 2.1779 -0.2912 1.5987 -2.3943 -0.7076 0.5285 1.7611 -1.7533 -0.0465 -1.3425 0.0549 3.0215 -2.1541 -0.6500 0.8483 -1.1661 -1.2181 -0.7334 1.3512 1.2763 3.5479 -2.2725 -1.1707 -1.5844 2.6077 1.1127 -1.5195 0.6989 -0.4720 -0.6525 -1.0995 -0.3609 -1.3719 0.2370
-3.5083 -0.9775 1.0556 2.8000 3.3006 -4.5392 0.3707 2.6132 -4.6020 2.0765 0.1434 1.7040 -1.1505 1.5873 0.7614 0.0561 0.1449 2.9401 0.7611 -1.5251 -0.2540 -1.3500 -3.9855 1.1818 -0.1294 -2.7718 2.8423 1.1084 -1.9495 2.5429 0.4462 2.4620 -1.6026 -2.2586 -0.9741 1.7297 -0.8743 0.4310 -1.3622 1.6006 2.8362 -2.4565 0.4163 1.0305 -1.2119 -1.3172 -1.6071 0.8788 1.5790 2.9116 -3.7898 -0.9571 -2.8949 1.5895 0.7717 -0.5850 1.9530 -0.3892 0.5673 -0.0151 -0.0520 -0.7573 0.6542
-0.4451 1.2193 2.2921 1.8913 4.6765 -1.8514 2.5073 2.2275 -1.8333 1.7801 -2.1731 -0.5434 -0.4447 -1.3586 -2.4257 1.5747 -0.1669 0.6854 -1.0317 -2.6480 -0.0207 -1.9421 -1.9063 3.3528 0.4090 -1.6533 2.9870 1.1566 -2.2354 1.8072 -0.3724 1.6186 -2.5010 -1.4333 0.6467 1.4517 -1.9355 0.1794 -1.2864 0.1883 2.9795 -2.3099 -0.7090 0.9177 -1.2380 -1.3357 -0.7482 1.3356 1.4599 3.2655 -2.0178 -1.0427 -1.4950 2.6245 0.9776 -1.4439 0.5161 -0.7285 -0.5913 -1.1758 -0.5244 -1.3105 0.1509
-0.6403 1.7450 2.0153 2.2265 4.8563 -2.1139 -0.1295 4.2694 -2.8020 1.9197 -1.3622 0.6162 -0.5545 -1.4017 -2.3184 0.8549 -3.1677 -0.4577 -1.7187 -2.2741 0.1298 -2.0466 -1.2410 3.4616 0.1393 -2.1203 3.0502 0.4982 -2.9793 1.8558 0.5759 1.3767 -2.3681 0.0118 0.5113 1.7498 -1.3606 0.5603 -1.1361 1.5078 2.5150 -2.1661 0.0495 0.7992 -1.1079 -0.9908 -0.4540 1.4591 1.2069 3.8023 -2.3512 -1.0668 -1.2837 2.7206 0.6532 -2.1924 0.5614 -0.5187 -0.6015 -1.0587 -0.6171 -1.3577 0.2602
-1.7049 1.6206 1.5090 0.6770 4.8611 -1.3070 2.3542 3.3252 -2.4045 1.9237 -0.4474 0.7368 -2.0781 -0.2924 -1.4414 1.6194 -2.5182 -0.3615 -1.1239 -2.6032 0.0935 -1.9405 -1.5920 3.4099 0.4226 -1.6916 3.0693 1.0788 -2.4366 1.9252 0.1411 1.2974 -2.6866 -0.6281 0.6979 1.5739 0.0888 -1.0910 -2.1955 -0.0099 2.6410 -2.0729 0.4462 0.2113 -1.7219 -1.1645 -0.5994 1.3703 0.9595 3.5501 -1.9441 -0.9855 -1.3313 2.6819 1.0270 -1.6635 0.6123 -0.6608 -0.5936 -1.0754 -0.4419 -1.3443 0.2288
-2.6035 -1.2048 3.0404 0.8165 4.5414 -4.2408 0.4513 2.0547 -4.4775 2.2038 -0.3601 1.9265 0.6747 -1.0381 -1.1994 0.4490 -1.1014 3.3025 -0.4663 0.9604 1.8106 -2.1255 -3.1550 0.0187 -0.2931 -3.2493 1.5479 1.0040 -2.4721 1.4449 1.6859 1.7063 -1.7752 -2.5980 -0.6058 1.7532 -0.5236 1.0618 -0.9598 1.5046 3.0186 -2.4483 0.7997 1.4765 -0.6044 -1.5120 -1.0521 0.9980 0.9588 3.1844 -3.6560 -1.3646 -2.5423 0.7644 0.8517 -1.0410 1.9342 0.2894 0.0813 -0.2913 -0.2028 -0.2634 1.1116
-3.3855 -0.7490 0.6695 1.7444 3.0458 -5.2084 -0.4403 2.9848 -3.9416 2.1397 -0.0189 2.0579 -0.8082 1.6497 0.6769 -0.0238 0.1563 3.0039 0.9784 -1.6115 -0.0567 -1.4870 -3.8861 1.0882 -0.4207 -2.7403 2.8959 0.9057 -2.0179 2.7667 1.1320 2.3699 -1.4604 -2.2304 -0.8052 1.4943 -0.3533 0.4380 -1.3833 1.7295 2.5766 -2.8040 0.9495 0.9469 -1.0766 -1.2348 -1.5214 0.7815 1.0409 2.8555 -3.9142 -1.0744 -2.8225 1.5406 0.7603 -0.6417 2.1281 -0.0326 0.5629 0.0127 0.1104 -0.7721 0.7291
-2.8877 0.3973 0.2686 -0.9666 4.7931 -2.5668 1.3520 3.8149 -2.3508 2.6501 -2.0166 1.0154 2.1921 0.5694 -0.6567 0.7012 -3.0364 0.1263 0.9501 0.2270 1.8040 -2.2359 -0.9968 3.0880 -0.7404 -2.7737 2.5809 0.7550 -2.5787 2.4535 0.1363 1.1053 -2.7456 -1.6524 0.4972 0.9637 0.6287 -1.0089 -1.6671 -0.6336 2.3728 -2.7229 -0.1665 0.1739 -1.6303 -1.0551 -0.7907 0.9773 -0.1025 3.5858 -2.5537 -1.4115 -1.4584 2.3023 1.1376 -2.0673 1.0721 0.8717 -0.1216 -0.5609 0.4773 -0.6877 0.8026
-2.3615 0.7539 0.9390 -0.4406 5.2008 -3.2316 -0.0340 3.1330 -4.6264 2.5972 -1.5410 1.7217 0.6981 -1.2393 -1.5926 1.1670 -3.0700 0.6087 0.3380 0.2745 1.8641 -2.8352 -1.7437 2.4969 -0.8074 -2.9778 2.6831 0.5915 -2.4150 2.8224 0.7332 1.7098 -2.0933 -2.0454 -0.3816 0.1463 1.9805 0.4718 -0.4061 0.3222 3.1333 -2.1704 0.7773 1.1836 -0.7080 -1.1738 -1.2625 0.8058 -0.0238 3.7767 -3.2873 -1.7059 -1.9468 2.0563 1.1583 -1.9511 1.4866 0.7742 -0.3063 -0.4334 0.2899 -0.8024 0.9182
0.1944 0.7321 2.7543 0.8087 5.3223 -2.5831 0.0840 3.2946 -3.9030 1.8721 -1.3162 1.2667 0.2837 -1.1543 -2.2465 1.2021 -3.0226 -0.2053 -1.4482 -2.2115 -0.2847 -2.7015 -1.4330 2.9811 -0.4690 -2.2881 3.0482 0.2070 -3.0399 1.9218 1.3881 1.5884 -1.8167 -0.7332 0.7471 1.6824 -0.8133 0.7380 -1.1940 1.3673 3.0731 -1.7905 0.5424 0.9512 -0.7769 -1.2056 -0.5259 1.3318 0.7865 3.8435 -2.7139 -1.5754 -1.4345 2.4908 0.6937 -2.1399 0.7934 -0.0217 -0.4391 -0.9711 -0.4623 -1.2853 0.2153
-2.5556 -1.9805 -0.7261 1.8498 1.6831 -5.3463 2.4902 3.1465 -3.3907 -1.7042 0.1094 2.8643 -1.8421 1.2525 0.1576 0.5341 0.7892 3.0950 1.4380 -0.5101 0.8501 -0.3317 -3.9965 0.7357 0.6047 -2.6619 2.4733 0.0490 -1.5181 3.2906 -0.0157 2.2115 -2.0089 -2.0181 -1.6576 0.5481 0.4620 2.0119 0.3698 0.4168 1.7812 -3.3627 0.5024 1.3646 -0.9057 -0.6032 -1.6333 0.4233 1.5227 2.1909 -3.9898 -0.1417 -2.8644 1.1802 -0.2690 -0.2408 2.5251 -0.4023 0.8741 0.2074 0.0140 -0.3513 1.0098
-2.0899 -0.7116 -1.3274 -1.8618 2.8018 -4.1917 0.4920 1.9077 -4.3876 2.4274 -0.6622 2.5390 1.5305 -0.3796 -1.1359 1.8263 -2.3262 0.9589 -0.2106 0.5040 2.1155 -2.7423 -2.0748 1.8279 -0.6063 -2.9764 2.3729 0.5305 -2.1542 2.9439 0.8559 2.5060 -1.4742 -1.8539 -0.3158 0.0159 1.8556 1.4334 0.4707 -0.3913 2.7692 -2.2337 0.6406 1.8398 -0.1660 -0.8807 -1.1932 0.5536 -0.5653 2.5056 -3.5311 -1.5318 -2.0637 1.6169 1.2758 -1.3782 1.8650 0.9891 0.3774 0.0283 0.3101 -0.4090 1.1389
-1.9720 -2.0516 -1.1991 1.7625 1.4625 -5.2740 2.5136 3.0978 -3.5063 -2.0339 -0.1468 2.6499 -1.8935 1.1372 -0.0100 0.0096 0.8731 3.1977 1.4284 -0.2823 1.1347 -0.0785 -3.9668 0.7945 0.6164 -2.5603 2.5796 -0.1276 -1.4829 3.3324 0.0889 2.3148 -1.9019 -1.7683 -1.7722 0.1799 0.2700 2.1200 0.5218 0.4480 1.7455 -3.2257 0.5486 1.5083 -0.7416 -0.3708 -1.6195 0.3769 1.5162 2.0898 -3.9509 0.0247 -2.8176 1.2210 -0.5298 -0.2595 2.5220 -0.4401 0.9039 0.2303 -0.0125 -0.2935 1.0688
-2.1527 0.9188 0.4567 -2.1353 2.9422 -3.6553 -0.6783 4.1614 -1.9922 2.6744 -1.3209 1.9262 1.2687 -1.0994 -1.5694 1.3928 -2.8828 0.6862 0.3962 0.4791 1.7652 -2.8080 -1.5150 2.0492 -0.8231 -2.7466 2.5130 0.5536 -2.1844 2.7995 1.2530 1.8439 -2.1604 -1.7405 -0.2452 -0.2453 2.2936 0.6988 -0.2726 -0.0248 1.9490 -2.9112 1.1197 1.3515 -0.7658 -0.9536 -1.0926 0.5507 -0.8880 2.9662 -2.8497 -1.6363 -1.7355 1.7505 1.2749 -1.7451 1.5318 1.1345 -0.1313 -0.4456 0.4794 -0.6122 0.8382
-1.5134 -2.9510 -0.3223 2.7629 1.5534 -4.6866 2.6050 3.5087 -3.0955 -2.6329 -0.9047 1.7356 -2.0004 0.5847 -0.7179 -1.5065 0.8288 2.8641 0.9366 0.3310 1.6705 1.6123 -3.2125 1.3434 -0.3427 -2.7149 2.6285 -0.7133 -1.3686 3.2186 0.0777 2.2881 -2.0164 -0.5606 -1.9617 -0.6769 -0.5213 2.1969 0.3464 0.8986 1.7054 -3.1076 0.3316 1.6870 -0.6835 0.1907 -1.5099 0.4157 2.0217 2.2370 -3.5967 0.5977 -2.5306 1.4665 -1.2767 -0.4025 2.1832 -0.7092 0.8170 -0.0106 -0.2579 -0.1818 1.0415
-1.9958 -0.7031 -1.4181 -1.9714 2.5281 -4.1108 0.1802 1.2093 -4.0536 2.4155 -0.5417 2.5722 1.6353 -0.2483 -1.1107 1.9062 -2.2077 0.9622 -0.2428 0.5529 2.0862 -2.6893 -2.0832 1.7138 -0.5454 -2.9403 2.3019 0.5526 -2.0925 2.9109 0.8442 2.5999 -1.4754 -1.7998 -0.2974 -0.0718 1.8234 1.5724 0.5076 -0.3920 2.8326 -2.2641 0.6158 1.9282 -0.1717 -0.8186 -1.1489 0.4910 -0.6978 2.2218 -3.4115 -1.4749 -2.0434 1.5312 1.3041 -1.2842 1.8606 1.0190 0.4811 0.0335 0.3315 -0.3354 1.1167
-2.5657 0.1718 -0.5588 -2.1152 3.5380 -2.9917 -0.1243 4.3432 -1.6625 0.9140 -3.2147 0.3110 0.5619 -1.1720 -1.7948 2.5773 -1.8751 1.3244 0.8796 0.3129 1.6802 -2.3711 -0.7496 2.7989 -0.8288 -2.5609 2.6816 0.6764 -2.3945 2.6261 1.2144 1.7089 -2.2967 -1.6414 0.3961 0.4953 2.3063 0.1766 -0.7421 -0.1424 2.1108 -2.7492 1.2734 1.1507 -0.9216 -1.0212 -0.8427 0.7898 -0.7472 3.2705 -2.4803 -1.4835 -1.3112 2.1609 1.1657 -2.0349 1.2294 0.9579 -0.3074 -0.6473 0.5136 -0.7164 0.7474
-2.5976 0.1053 -0.5784 -0.8654 3.2672 -4.8574 -1.0191 4.0696 -2.4684 1.4422 -2.7808 0.3483 2.4381 0.9224 0.6449 2.4395 -1.5912 2.1311 0.2963 0.1966 2.3871 -2.8171 -1.5913 2.2181 -0.9679 -3.0819 2.1137 0.4151 -2.6962 2.5915 1.0638 2.0131 -1.7595 -1.8101 0.2474 0.5963 1.3190 -0.3283 -1.1277 0.5168 2.2314 -3.1224 0.4987 0.8373 -1.0515 -1.0192 -0.9239 0.7301 -0.4029 3.1418 -3.4519 -1.7075 -1.8283 1.7456 1.1757 -1.8913 1.5477 1.1835 0.2641 0.1753 0.4180 -0.5831 1.1876
-1.6106 -2.8243 -0.4605 2.8464 1.6900 -4.8107 1.2240 3.5781 -4.3822 -2.6871 -0.7448 1.5957 -1.6827 0.8336 -0.6766 -1.4996 0.7946 2.9256 0.9846 0.0882 1.9149 1.3120 -3.4676 1.4000 -0.6789 -2.8342 2.5654 -0.9678 -1.4906 3.2049 0.6778 2.3418 -1.6890 -0.5772 -1.8780 -0.6828 -0.1281 2.1902 0.6114 1.6201 1.7973 -2.6977 0.7480 1.6461 -0.3805 0.1513 -1.5751 0.4759 1.8728 2.3343 -3.8930 0.3663 -2.6883 1.4900 -1.3341 -0.4146 2.1895 -0.4391 0.8659 0.1444 -0.1982 -0.2426 1.1554
-1.9574 -1.8633 -1.2707 2.3455 1.8961 -4.9058 0.4199 0.5562 -3.9704 -2.0361 -0.0501 2.5862 -1.7985 1.2893 -0.0066 0.0499 0.7584 3.3069 1.4723 -0.2114 1.1836 0.1387 -3.8239 0.4608 0.5818 -2.5795 2.4430 -0.2629 -1.5874 3.2090 0.2590 2.5671 -1.7284 -1.7145 -1.6397 0.1109 0.3270 2.2462 0.6930 1.2367 2.6140 -2.8446 0.6751 1.7133 -0.5882 -0.3137 -1.4744 0.2781 1.3171 1.7345 -3.8468 0.1225 -2.7259 1.0163 -0.5378 -0.2639 2.5065 -0.3593 1.0467 0.2954 0.0348 -0.2023 1.0718
0.9687 1.6703 1.6450 0.3433 5.0789 -1.3377 2.0531 3.2965 -1.8758 1.6124 -2.4711 0.7741 1.5681 -0.2920 -1.1746 -0.0860 -3.3736 -0.5837 -1.8966 -1.2999 -0.0200 -0.8573 -0.2114 3.7538 -1.3475 -2.2420 2.6199 -0.5245 -3.1429 1.7263 -0.2075 1.5239 -2.7293 0.9486 0.2505 1.6583 -0.5222 -0.8556 -2.2876 -0.3760 2.9073 -2.2170 -0.7984 0.4792 -1.8565 -0.3869 -0.1597 1.4010 0.6236 3.7071 -1.8364 -0.8390 -0.8267 2.6882 0.1194 -2.4867 0.5135 0.0892 -0.4473 -1.0541 -0.4844 -1.1050 0.1926
-2.7685 -2.0048 -0.6360 0.5657 0.9057 -4.9209 2.1261 0.7213 -2.9453 -1.0766 -1.3989 3.2757 1.6779 0.9651 0.5329 0.2541 0.5272 3.3654 -1.9525 0.4823 1.4405 0.9973 -2.2350 -1.0395 0.9966 -2.5280 1.3325 1.1944 -1.3854 2.3077 0.3493 2.6795 -1.5007 -1.8417 -2.0370 0.4395 -0.2380 2.4296 0.8622 0.1247 2.1916 -2.8850 -0.4686 1.9817 -0.4775 -0.7920 -1.1402 0.1180 0.9035 1.3240 -3.5368 0.4599 -1.9840 0.0363 -0.0683 -0.5628 2.5062 0.1935 1.0938 0.5547 -0.6368 -0.0259 1.1700
-2.9865 -1.4924 -0.5999 -0.3984 2.0176 -4.9430 0.4357 0.1850 -3.4191 0.6822 0.3874 3.4876 2.0975 0.1454 0.3425 -1.1179 -1.0972 3.2050 -1.4277 0.9539 1.4610 0.3782 -2.6898 -0.9422 0.3863 -2.8486 1.4427 0.9829 -1.7861 2.3436 1.3305 2.3443 -1.5058 -2.1732 -1.4904 0.5645 0.8992 2.1894 0.9000 0.6647 2.5832 -2.8116 0.4052 1.9391 -0.4188 -0.8953 -1.0032 0.1887 0.2666 1.6402 -3.6702 0.0046 -2.2190 0.1299 0.0454 -0.6057 2.5384 0.7748 0.8090 0.5176 -0.3549 0.0379 1.1888

>  <OB_ATOM_TYPES> (1b59A1)
C.3 C.3 C.3 C.3 C.3 O.3 O.3 O.2 C.3 C.3 C.3 O.3 O.3 C.2 C.3 C.3 C.2 C.2 C.3 C.3 C.3

>  <ENSEMBLE_RMSD> (1b59A1)
0.799 0.951 0.966 0.978 1.000 1.140 1.153 1.230 1.269 1.400 1.421 1.505 1.583 1.585 1.598 1.628 1.659 1.677 1.690 1.718 1.732 1.739 1.739 1.750 1.761 1.862 1.875 1.922 1.925 1.927 2.032 2.056 2.066 2.089 2.172 2.181 2.228 2.258 2.324 2.351 2.360 2.389 2.389 2.405 2.436 2.492 2.535 2.629 2.643 2.677

$$$$
