
 OpenBabel03071213D

 25 26  0  0  0  0  0  0  0  0999 V2000
   27.7650   -8.5320   64.3440 C   0  0  0  0  0
   31.7020   -9.4880   60.9290 O   0  0  0  0  0
   35.1150   -7.1970   63.4350 O   0  0  0  0  0
   34.1150  -13.0700   67.2850 O   0  0  0  0  0
   27.9490  -12.7780   62.9190 C   0  0  0  0  0
   32.0780  -13.6760   66.5930 O   0  0  0  0  0
   31.2300   -6.8410   65.0770 O   0  0  0  0  0
   28.0610   -9.6490   63.3340 C   0  0  0  0  0
   33.0290   -9.0750   61.2490 C   0  0  0  0  0
   34.5150   -7.2100   62.1450 C   0  0  0  0  0
   31.7780   -5.8770   62.9210 C   0  0  0  0  0
   32.0960   -6.7030   61.6670 C   0  0  0  0  0
   30.4840   -9.9330   63.6410 N   0  0  0  0  0
   29.2160  -11.9210   62.8880 C   0  0  0  0  0
   34.0310  -10.5980   65.8420 C   0  0  0  0  0
   33.8750   -9.4120   65.0710 C   0  0  0  0  0
   31.8140  -11.3380   65.1410 C   0  0  0  0  0
   29.1840  -10.6300   63.7590 C   0  0  0  0  0
   32.5210   -8.0310   63.5490 N   0  0  0  0  0
   33.1340  -12.8250   66.6530 C   0  0  0  0  0
   31.7970   -6.9540   63.9980 C   0  0  0  0  0
   31.6360  -10.1660   64.3690 C   0  0  0  0  0
   32.9940  -11.5710   65.8730 C   0  0  0  0  0
   32.6830   -9.1850   64.3260 C   0  0  0  0  0
   33.0660   -7.7960   62.1590 C   0  0  0  0  0
  1  8  1  0  0  0
  2  9  1  0  0  0
  3 10  1  0  0  0
  4 20  1  0  0  0
  5 14  2  0  0  0
  6 20  2  0  0  0
  7 21  2  0  0  0
  8 18  1  0  0  0
  9 25  1  0  0  0
 10 25  1  0  0  0
 11 12  1  0  0  0
 11 21  1  0  0  0
 12 25  1  0  0  0
 13 18  1  0  0  0
 13 22  1  0  0  0
 14 18  1  0  0  0
 15 16  1  0  0  0
 15 23  2  0  0  0
 16 24  2  0  0  0
 17 22  2  0  0  0
 17 23  1  0  0  0
 19 21  1  0  0  0
 19 24  1  0  0  0
 19 25  1  0  0  0
 20 23  1  0  0  0
 22 24  1  0  0  0
M  END
>  <MOLID> (1b9vA1)
1b9vA1

>  <SMILES_CANONICAL> (1b9vA1)
CC[C@H](Nc1cc(ccc1N1C(=O)CCC1(CO)CO)C(=O)O)C=C	

>  <FINGERPRINT> (1b9vA1)
0000000000000011010000100000001000000001000000000101100000000000010000000001000000010001000000011000000000001001000001100000000100100000000010000000000010000000000000000000000001100000000100000000000000000000000000000000000000000000000100000000011000000000000000000000000000000001000000000000000000010000000010001101000000000000001010000010000000000100011000000000000110010000000000000000010000000000100000000010001000000001000100011000000000000000000000000000111000000000010000000001000000001000000000000000100000010000000001000000000000000000000000100000000001000001000000000000100101000000000000000000000010000000000000000000001000000001010000000001000000000000000000000001100000000010000011100010000000100011000000000010000000000000000000000101000000000000000111000000000000000100000000000000000010000000000000000000000000000000000010000000000000000000001000001001000000000000000000001000000000100000010000101000000000000000000000100000011000000000000000011100010000000000000100000000000000000000100000000000001000000000

>  <MACCS166> (1b9vA1)
000000000000000000000000000000000100000000001000010010000000010001000000001100100110100011010011001000010000111101001001111000110011101111111111010111101111111110111000

>  <OB_MW> (1b9vA1)
348.169

>  <OB_logP> (1b9vA1)
1.7495

>  <OB_PSA> (1b9vA1)
110.1

>  <OB_MR> (1b9vA1)
98.2786

>  <OB_ATOMIC_CHARGES> (1b9vA1)
0.0021791689 -0.2185273705 -0.2185273705 -0.2405515836 -0.0031589032 -0.2405515836 -0.2745339151 0.0260758055 0.2029989994 0.2029989994 0.0874461622 0.0333662741 -0.2336815322 -0.0050402714 0.0079410866 0.016415513 0.023934454 0.1143990892 -0.2555791323 0.3877952772 0.2294607618 0.0794353942 0.0811330847 0.068710797 0.1258607953

>  <MCT_HBD> (1b9vA1)
4

>  <MCT_HBA> (1b9vA1)
7

>  <ENSEMBLE_TOTAL> (1b9vA1)
50

>  <ENSEMBLE_COORDS> (1b9vA1)
-3.9693 0.7660 -1.4729 0.4957 0.2025 -2.9198 3.5335 2.8589 -2.1704 2.3806 -3.5741 2.9953 -3.2548 -3.2028 0.0414 0.2350 -4.1840 2.5476 -1.0322 2.5426 1.0548 -3.8351 0.3077 -0.0376 1.6894 0.7740 -2.4133 2.6998 2.6093 -1.0499 -0.2454 3.6182 -0.9566 0.4994 2.9735 -2.1187 -1.4925 -0.3108 -0.3012 -3.1519 -2.0234 -0.5732 2.0884 -1.2233 1.7073 1.9449 0.0381 1.0027 -0.1911 -1.7307 1.1255 -2.7937 -0.7733 0.1479 0.6390 1.5509 -0.2891 1.1504 -3.3772 2.4703 -0.2826 2.5344 0.0886 -0.3428 -0.5913 0.4210 1.0474 -2.0713 1.7874 0.7900 0.3547 0.3815 1.3978 1.9313 -1.4687
-4.2976 0.8582 -0.7994 2.0032 1.0985 -3.8021 3.6072 1.8351 -1.0742 2.5760 -3.5478 2.8228 -3.6717 -3.1342 -0.3971 0.3352 -3.9171 3.0076 -1.0812 2.5056 0.9763 -3.7687 0.2280 0.4686 1.4381 0.6728 -2.5707 2.5043 2.6610 -1.3977 -0.4245 3.5223 -1.1073 0.2304 2.8177 -2.2838 -1.5246 -0.3814 -0.2544 -3.2966 -1.9065 -0.7558 2.1193 -1.0993 1.7359 1.9279 0.1105 0.9556 -0.1320 -1.7450 1.1552 -2.7933 -0.9040 0.2199 0.5616 1.5141 -0.4000 1.2753 -3.2391 2.6189 -0.3751 2.4831 -0.0211 -0.3365 -0.6330 0.4176 1.1275 -2.0042 1.8219 0.7679 0.3454 0.3085 1.2280 1.8595 -1.6450
-4.3441 0.8100 0.5546 1.6660 0.6948 -3.8541 3.5456 1.4697 -1.4608 2.4469 -3.0946 3.4494 -2.8554 -2.4363 -2.0841 0.4734 -4.0498 2.8379 -0.7765 2.7708 1.0992 -3.9433 -0.6255 0.8154 1.1698 0.4315 -2.5512 2.4830 2.3947 -1.6075 -0.3419 3.5331 -1.1492 0.1573 2.7044 -2.3279 -1.6612 -0.1663 0.0922 -3.1128 -1.2986 -1.4375 2.1167 -1.1238 1.6704 1.9293 0.0684 0.8765 -0.2427 -1.5882 1.4343 -2.7635 -1.0991 -0.0089 0.5382 1.4983 -0.3991 1.2733 -3.1289 2.7737 -0.2348 2.5886 0.0180 -0.4361 -0.5148 0.6360 1.0672 -1.9070 1.9721 0.7204 0.3667 0.3651 1.1253 1.7020 -1.7146
-4.9121 0.7054 0.2246 2.6817 -0.0366 -2.2501 3.2909 3.2336 -2.2914 2.1259 -3.5021 3.1456 -3.3578 -3.0247 0.5548 0.2569 -4.3221 2.1381 -0.9953 2.5864 0.9806 -3.8374 0.2448 -0.7299 1.5595 0.7694 -2.5717 2.7091 2.5570 -1.1868 -0.1960 3.6461 -1.0328 0.4850 2.9650 -2.2112 -1.5177 -0.3496 -0.4947 -3.1841 -2.0777 -0.3697 2.0128 -1.2463 1.6206 1.8729 0.0300 0.9408 -0.2506 -1.7470 0.9819 -2.8593 -0.6644 -0.0214 0.6162 1.5409 -0.3971 1.0636 -3.4201 2.3137 -0.2619 2.5556 0.0027 -0.3942 -0.6034 0.2821 0.9690 -2.0923 1.6741 0.7404 0.3434 0.2761 1.3824 1.9088 -1.5788
-4.0908 0.4595 -1.5901 0.4357 0.2350 -3.1970 2.8612 3.2742 -0.2649 0.2000 -3.7847 2.9624 -3.5363 -2.9690 0.6414 2.3818 -4.0132 2.3442 -0.8485 2.5788 0.9458 -3.8592 0.4039 -0.0944 1.6555 0.6784 -2.6302 2.8245 2.4300 -1.4015 -0.1237 3.5891 -1.1200 0.5681 2.9179 -2.2992 -1.5163 -0.2611 -0.2321 -3.1902 -1.9787 -0.1810 2.1955 -1.2923 1.4794 2.0430 -0.0537 0.7398 -0.1559 -1.7062 1.1304 -2.8176 -0.6229 0.3086 0.7029 1.4905 -0.4696 1.3374 -3.3809 2.3479 -0.1589 2.5175 -0.0623 -0.3255 -0.5752 0.4117 1.1277 -2.0827 1.6806 0.8501 0.3054 0.2222 1.4394 1.8406 -1.6720
-3.6637 0.4902 -2.0744 0.0547 0.3649 -2.9131 3.6329 1.7808 -1.2684 2.4524 -3.3203 3.1796 -3.8990 -2.4175 1.0677 0.6223 -4.3024 2.2439 -0.8092 2.6556 1.3530 -2.9408 -0.8353 -1.9738 1.3244 0.8488 -2.5089 2.5421 2.6839 -1.2891 -0.3280 3.7081 -0.7661 0.2484 3.0602 -2.0206 -1.5675 -0.1962 -0.0717 -3.6362 -1.3024 0.3840 2.1598 -1.1543 1.6276 1.9586 0.1145 0.9633 -0.1360 -1.7123 1.1330 -2.5016 -1.1849 -0.5670 0.5843 1.6154 -0.2438 1.3548 -3.3349 2.3874 -0.2306 2.6264 0.2760 -0.3424 -0.5540 0.4682 1.1454 -2.0301 1.7293 0.7765 0.4089 0.3895 1.1983 1.9869 -1.5055
-4.3928 -1.6903 1.3572 0.1016 -0.1428 -2.8831 3.0374 3.3797 -1.3332 2.2189 -3.1729 3.5184 -3.1476 -1.7101 -2.4842 0.1833 -3.9615 2.8745 -0.4698 2.8953 0.9247 -3.8348 -0.4619 0.6815 1.4156 0.2998 -2.5961 2.8808 2.0095 -1.6578 0.0408 3.5273 -1.3480 0.5957 2.6656 -2.4775 -1.5704 0.0355 0.0618 -3.0825 -0.6823 -1.6363 2.1165 -1.2287 1.6622 2.0366 -0.0382 0.8427 -0.2756 -1.4793 1.4225 -2.6823 -0.8518 -0.2155 0.7828 1.4748 -0.4856 1.0679 -3.1212 2.8082 0.0755 2.6300 -0.1376 -0.3718 -0.4158 0.5949 0.9979 -1.9076 1.9706 0.8595 0.3592 0.3207 1.4170 1.5879 -1.7850
-4.4655 0.4596 0.0726 -0.6350 1.1536 -2.9674 3.4708 1.8432 -2.7157 0.2422 -3.8284 3.0419 -2.5199 -2.4602 -2.3579 2.3907 -3.2886 3.5631 -0.8747 2.6601 1.0541 -3.8644 -0.8547 0.5208 0.7119 0.8144 -2.6843 2.8104 1.4583 -1.5219 -0.0959 3.6096 -1.0163 1.0678 3.1812 -1.8948 -1.5542 -0.2434 0.0514 -2.7940 -1.3487 -1.6742 2.1374 -1.0345 1.9334 1.9645 0.1326 1.1001 -0.1473 -1.6426 1.4251 -2.5883 -1.2278 -0.2080 0.6628 1.5035 -0.3116 1.3480 -3.0515 2.9728 -0.1673 2.5635 0.0604 -0.3332 -0.5696 0.6237 1.1174 -1.8932 2.0901 0.8077 0.3573 0.4441 1.3079 1.7064 -1.6013
-3.6766 -1.2174 1.7925 -0.5813 1.2689 -3.1778 3.2157 0.2194 -1.8460 2.2259 -2.7988 3.7961 -2.6109 -2.1525 -2.6938 0.3793 -3.8350 2.9653 -0.8900 2.8580 0.8553 -3.8017 -0.8012 0.3459 0.7166 0.8559 -2.7892 2.8293 1.5663 -1.6338 -0.0741 3.6958 -1.2476 1.1119 3.2233 -2.0707 -1.5324 -0.1589 -0.1682 -2.8677 -1.1311 -1.8759 2.0364 -0.8316 1.9768 1.8856 0.3270 1.1240 -0.2073 -1.4807 1.3619 -2.5500 -1.1625 -0.4252 0.6558 1.6182 -0.4287 1.1542 -2.8897 2.9740 -0.1723 2.7025 -0.1232 -0.3568 -0.4394 0.5122 1.0190 -1.6994 2.1088 0.7728 0.5067 0.3832 1.3187 1.7561 -1.7160
-3.8149 -1.2972 2.0277 2.2913 -0.4837 -2.5540 2.8319 3.3882 -1.1790 2.2587 -3.5840 2.8523 -3.2938 -1.7426 -2.4634 0.0423 -3.5577 3.3683 -0.6456 2.8241 0.8816 -3.8947 -0.5065 0.7433 1.1633 0.3616 -2.7117 2.7117 2.1203 -1.8016 -0.1706 3.5119 -1.3802 0.3924 2.6796 -2.5237 -1.6563 0.0027 0.0109 -3.2223 -0.7251 -1.6047 2.0365 -1.1715 1.6470 1.9482 -0.0074 0.7872 -0.3236 -1.5336 1.2933 -2.7756 -0.8932 -0.1993 0.6668 1.4818 -0.5505 1.0048 -3.0814 2.7856 -0.0907 2.5999 -0.1853 -0.4411 -0.4478 0.5005 0.9418 -1.9156 1.8831 0.7723 0.3540 0.2364 1.2672 1.6232 -1.8637
-4.5280 0.7359 0.4388 2.2875 -0.3383 -2.4021 3.0656 2.7628 -2.7507 0.1642 -3.9191 2.8531 -2.9798 -2.1736 -2.2284 2.3800 -3.5351 3.2072 -0.7244 2.7351 1.1596 -3.9546 -0.6132 0.8147 1.1334 0.4700 -2.5724 2.5681 2.2811 -1.5126 -0.2266 3.5692 -1.0504 0.2401 2.7589 -2.2537 -1.6647 -0.1283 0.1780 -3.0948 -1.0722 -1.4858 2.1276 -1.1884 1.6807 1.9452 0.0214 0.9039 -0.2267 -1.6549 1.3747 -2.7712 -1.0362 -0.0360 0.5636 1.4725 -0.3676 1.3091 -3.2086 2.7192 -0.1748 2.5757 0.0789 -0.4235 -0.5438 0.6344 1.0785 -1.9985 1.9056 0.7409 0.3304 0.3827 1.1652 1.6974 -1.6719
-3.3796 0.1461 -2.2657 1.1435 1.8930 -3.8477 3.1763 0.6886 -1.7900 2.7088 -3.4782 2.7661 -4.0269 -2.2248 1.3201 0.4962 -3.9676 2.9746 -1.2362 2.4373 1.1579 -2.8748 -1.2313 -1.8986 0.6026 1.3480 -2.6525 2.7064 1.9563 -1.3609 -0.5020 3.6580 -0.7818 0.8299 3.5300 -1.4992 -1.5603 -0.3255 -0.0801 -3.6981 -1.2653 0.4531 2.1082 -1.0177 1.8412 1.8768 0.2137 1.1184 -0.0719 -1.7646 1.1320 -2.5103 -1.3588 -0.4363 0.5154 1.6216 -0.2084 1.3910 -3.2330 2.5848 -0.4778 2.5224 0.2018 -0.3197 -0.6219 0.4553 1.1775 -1.9863 1.8259 0.7392 0.4111 0.4211 1.1859 2.0490 -1.4313
-4.8237 -1.6412 0.7465 -0.6428 1.2338 -2.9916 3.2102 0.1714 -1.8915 0.2024 -3.5386 3.2134 -2.5840 -2.0146 -2.4790 2.4506 -3.2349 3.3929 -0.8118 2.8281 0.8928 -3.8092 -0.5375 0.5644 0.7337 0.9418 -2.8275 2.8782 1.5320 -1.6686 -0.0090 3.6986 -1.2018 1.1954 3.2529 -2.0131 -1.5229 -0.0771 0.0203 -2.9059 -1.0072 -1.6666 2.1530 -0.8754 1.9141 1.9902 0.2785 1.0590 -0.1319 -1.4830 1.4039 -2.6002 -1.0215 -0.2101 0.7192 1.6042 -0.4264 1.3632 -2.8930 2.9538 -0.1017 2.6875 -0.0933 -0.3029 -0.4274 0.5761 1.1294 -1.7294 2.0778 0.8484 0.4827 0.3708 1.3723 1.7692 -1.7164
-3.3115 -1.3312 -2.6404 0.2056 0.2208 -2.9498 2.8492 3.6851 -0.8374 0.1439 -4.0218 2.6058 -4.0551 -1.9544 1.4867 2.4156 -3.8988 2.6465 -0.6728 2.6687 1.2057 -3.2555 -0.2938 -1.5462 1.4788 0.7221 -2.5822 2.7984 2.3598 -1.3371 -0.1210 3.6500 -0.9264 0.5053 2.9878 -2.1485 -1.5911 -0.0467 0.1630 -3.7324 -0.8745 0.7735 2.1987 -1.3589 1.4431 2.0462 -0.0821 0.7740 -0.1722 -1.7189 1.1538 -2.6822 -0.8924 -0.2811 0.7011 1.5269 -0.3443 1.3316 -3.4293 2.3367 -0.0794 2.5849 0.1391 -0.3445 -0.5424 0.5128 1.1282 -2.1506 1.6261 0.8442 0.3203 0.3134 1.3712 1.8693 -1.5868
-1.9445 -1.2646 -2.9643 -0.6823 1.7563 -2.9529 3.1617 0.6282 -1.7747 2.5920 -3.4083 2.9186 -3.9006 -2.3461 1.1299 0.3868 -3.9683 2.8484 -1.0954 2.6000 1.2071 -2.9379 -0.7943 -1.9290 0.6385 1.3371 -2.6552 2.7348 1.9291 -1.4064 -0.3085 3.8092 -0.7188 0.9392 3.5626 -1.5501 -1.5762 -0.1873 -0.0454 -3.6539 -1.2839 0.3609 2.0889 -0.9942 1.8458 1.8864 0.2482 1.1312 -0.1235 -1.6632 1.1645 -2.4807 -1.2036 -0.5493 0.5675 1.6904 -0.2020 1.2972 -3.1955 2.5882 -0.3481 2.6517 0.2399 -0.3379 -0.5182 0.4803 1.1257 -1.9312 1.8455 0.7538 0.4782 0.4352 1.2171 2.0675 -1.4475
-2.5753 -1.0642 -2.7065 2.5658 0.1918 -2.4037 3.0263 3.3836 -2.2942 2.3657 -3.9349 2.2849 -4.1243 -1.9276 1.6355 0.1532 -4.0511 2.8131 -0.9583 2.5563 1.2799 -3.3864 -0.5393 -1.5467 1.3386 0.8921 -2.5247 2.5398 2.6748 -1.1640 -0.3404 3.6824 -0.7579 0.2391 3.0406 -2.0093 -1.7074 -0.1018 0.1049 -3.8269 -0.9108 0.8248 2.0521 -1.3394 1.5092 1.9042 -0.0558 0.8453 -0.2842 -1.7529 1.0926 -2.7910 -1.0015 -0.2384 0.5491 1.5669 -0.2564 1.0996 -3.4612 2.3134 -0.3028 2.5623 0.2475 -0.4575 -0.5653 0.4779 0.9978 -2.1680 1.6113 0.7127 0.3312 0.3429 1.2104 1.9916 -1.4815
-2.2676 -0.9938 -2.7755 0.9701 0.0460 -2.8345 3.1778 2.4035 -2.5973 2.5283 -3.2783 3.2895 -4.7673 -0.6375 0.7692 0.6454 -4.2661 2.4784 -1.1138 2.5038 1.3595 -2.3087 -1.9473 -1.6008 0.3990 1.3144 -2.5599 2.6136 1.8242 -1.4310 -0.4722 3.6863 -0.6355 0.7797 3.4908 -1.4727 -1.5960 -0.2670 0.0156 -3.9417 -0.6266 -0.2781 2.1443 -1.1245 1.7461 1.9132 0.1316 1.0695 -0.1592 -1.7051 1.3189 -2.6020 -1.2681 -0.2774 0.5122 1.6215 -0.1168 1.3843 -3.2967 2.5651 -0.4176 2.5584 0.3553 -0.3819 -0.5754 0.6092 1.1362 -1.9986 1.9040 0.7244 0.4011 0.4946 1.0993 2.0035 -1.3954
-1.4168 -3.0709 -1.3471 -0.0543 0.3025 -2.8834 3.5732 1.7227 -1.3736 2.4688 -3.5084 2.7322 -4.9365 -0.4407 0.2227 0.2397 -3.7410 3.1365 -0.8476 2.8033 1.2412 -2.2620 -1.8533 -1.6417 1.2333 0.7744 -2.5234 2.5054 2.6508 -1.4278 -0.3287 3.7535 -0.9149 0.2057 3.0231 -2.1402 -1.5955 -0.1143 -0.0920 -3.8901 -0.3705 -0.6013 2.0652 -0.9974 1.7899 1.9056 0.2199 1.0187 -0.2417 -1.5234 1.3173 -2.6180 -1.1061 -0.3730 0.5595 1.6763 -0.2861 1.1767 -3.1111 2.6704 -0.2523 2.7187 0.1760 -0.4086 -0.4240 0.5527 1.0335 -1.8494 1.9188 0.7367 0.4989 0.4084 1.1488 1.9665 -1.5803
-3.8814 -3.1741 -0.5533 -0.1572 1.4054 -3.2950 3.5255 0.7031 -1.4483 2.5844 -3.2096 3.1787 -4.5243 0.4303 0.1981 0.3802 -3.7776 3.0778 -1.3005 2.4431 0.6509 -2.6835 -2.3580 -0.9753 1.1468 1.1656 -2.7953 2.9533 1.9880 -1.2676 -0.3188 3.6091 -1.2125 1.0788 3.4514 -1.7876 -1.2973 -0.4681 -0.5060 -3.6312 -0.1152 -0.6282 2.0581 -0.8248 2.0051 1.8676 0.3594 1.1918 0.0022 -1.6899 1.0953 -2.5805 -1.0697 -0.1831 0.6442 1.6181 -0.4049 1.3011 -3.0265 2.7925 -0.4146 2.5086 -0.1901 -0.1958 -0.6035 0.3192 1.1623 -1.8251 1.9478 0.8243 0.4669 0.3421 1.4563 1.9929 -1.5521
-1.1177 -2.7226 -1.8277 -0.5828 1.7104 -3.1814 3.1688 0.6098 -1.8078 2.5777 -3.1616 3.2411 -4.9004 -1.2346 0.2382 0.4493 -3.9101 2.9434 -1.1344 2.6759 1.1249 -2.1455 -1.6163 -1.8474 0.6232 1.1801 -2.6617 2.7006 1.8960 -1.4409 -0.3562 3.7740 -0.8677 0.8885 3.4859 -1.6887 -1.6109 -0.1735 0.0107 -3.8945 -0.6652 -0.4271 2.0960 -0.9189 1.8689 1.8777 0.2930 1.1112 -0.1800 -1.5466 1.3841 -2.5148 -1.2167 -0.4373 0.5263 1.6879 -0.2390 1.3130 -3.0634 2.7676 -0.3886 2.6725 0.1547 -0.3944 -0.4555 0.6148 1.1033 -1.8139 2.0063 0.7153 0.5120 0.4636 1.1804 2.0013 -1.5027
-3.0707 -3.2350 -1.4908 1.0433 1.6971 -3.9229 3.1220 0.5092 -1.8973 2.6394 -3.3506 2.9014 -4.9028 -0.5080 0.4513 0.4222 -3.7102 3.2686 -1.0503 2.6772 1.1403 -2.3071 -1.9330 -1.4871 0.5465 1.2489 -2.6703 2.7368 1.8165 -1.5051 -0.3277 3.7429 -0.8913 0.9496 3.4841 -1.6692 -1.5541 -0.1668 -0.0370 -3.8812 -0.3910 -0.3978 2.1121 -0.9194 1.8898 1.9178 0.2785 1.1055 -0.1373 -1.5825 1.3075 -2.6083 -1.1425 -0.2321 0.5842 1.6809 -0.2498 1.3254 -3.0453 2.7848 -0.3316 2.6622 0.1506 -0.3441 -0.4728 0.5633 1.1273 -1.8297 1.9726 0.7669 0.4970 0.4383 1.2218 1.9923 -1.5232
-1.6251 -1.4820 -2.8792 -0.7656 1.8622 -2.9518 3.0329 0.5369 -1.8992 0.3450 -3.9188 2.7520 -4.1273 -2.0761 1.0785 2.5470 -3.4509 3.0866 -1.0659 2.6210 1.2428 -2.7498 -0.9802 -2.0060 0.5358 1.3750 -2.6762 2.6823 1.8433 -1.4724 -0.3145 3.8042 -0.7142 0.9491 3.5563 -1.5222 -1.5488 -0.2303 -0.0615 -3.7213 -1.1399 0.2197 2.1084 -0.9540 1.8823 1.8845 0.2771 1.1528 -0.1046 -1.6614 1.2284 -2.4540 -1.2530 -0.5494 0.5416 1.6743 -0.2088 1.4511 -3.1457 2.6413 -0.3509 2.6507 0.2510 -0.3249 -0.5376 0.5086 1.1503 -1.8952 1.9152 0.7521 0.4743 0.4463 1.1728 2.0500 -1.4646
-5.0068 -1.1251 -1.2771 2.3135 0.9941 -3.7804 2.6160 3.5228 -0.5184 0.2535 -4.1873 2.4843 -3.6901 -0.0797 2.1014 2.4577 -3.7797 2.8770 -1.0030 2.3780 0.8821 -3.5101 -1.3093 -1.3136 1.6017 0.5755 -2.6249 2.7373 2.3576 -1.3160 -0.3097 3.3986 -1.1892 0.4765 2.7721 -2.3326 -1.4659 -0.5018 -0.4245 -3.4383 0.0699 0.7994 2.1395 -1.3028 1.5946 1.9643 -0.0704 0.8527 -0.1071 -1.9329 0.9605 -2.7778 -0.9818 -0.0244 0.6292 1.3631 -0.4915 1.3839 -3.4467 2.3995 -0.2939 2.3448 -0.1135 -0.3010 -0.7916 0.2659 1.1370 -2.1961 1.6564 0.8096 0.1856 0.2060 1.3838 1.7431 -1.6737
-2.6640 -2.7867 -1.8483 -0.3062 1.4368 -3.2271 3.5897 2.2895 -2.3604 0.4109 -4.0250 2.7824 -4.3963 0.7705 -0.1072 2.4021 -3.2711 3.5820 -1.2834 2.3735 0.8434 -2.8357 -2.5185 -0.3681 0.9670 1.0702 -2.7235 2.8607 1.7482 -1.2691 -0.3608 3.5230 -1.0587 1.0228 3.3559 -1.6628 -1.3827 -0.5628 -0.3600 -3.7341 -0.2303 -0.6891 2.0764 -0.9697 2.0133 1.8699 0.2103 1.1992 -0.0756 -1.7680 1.2696 -2.7033 -1.0515 0.0016 0.5821 1.5011 -0.3163 1.4092 -3.1162 2.8871 -0.4394 2.4185 -0.0405 -0.2799 -0.6939 0.4720 1.1347 -1.9271 2.0525 0.7765 0.3441 0.4193 1.3593 1.8793 -1.4911
-4.8392 0.9868 1.3965 2.7666 1.8078 -3.0610 2.4828 3.8714 0.4238 2.1807 -4.0845 2.2857 -3.2916 -2.8263 0.5129 0.2631 -3.5467 3.3877 -0.9334 0.0779 -2.5747 -3.9571 0.6051 0.2348 2.8154 2.0701 -1.6689 1.5505 2.8032 0.3614 -0.1780 2.3478 -2.8634 0.5905 3.2246 -1.8841 -1.6065 0.2060 0.3947 -3.1027 -1.6487 -0.0866 2.0871 -1.7569 0.8901 1.9570 -0.6520 -0.0420 -0.2352 -1.4610 1.4570 -2.9049 -0.3855 0.6795 0.6487 1.0323 -1.1003 1.0956 -3.3132 2.5237 -0.2213 0.9978 -2.1969 -0.3920 -0.4318 0.5988 1.0151 -2.1766 1.5847 0.7818 -0.0074 -0.1978 1.4270 2.2601 -1.0556
-3.0381 1.4921 1.7413 2.9023 2.2898 -2.6293 1.6155 2.8154 1.2889 2.1248 -2.9317 3.5555 -4.0738 -2.7515 0.1326 0.6202 -4.2421 2.4459 -0.2665 -0.3349 -2.9198 -3.5554 0.7190 0.5528 2.5234 2.6211 -1.3033 0.6131 2.9769 0.2995 -0.0319 2.0461 -3.1832 0.2138 3.0937 -2.1087 -1.6235 -0.4266 -0.2714 -3.7141 -1.5505 -0.3219 2.1879 -1.4080 1.1935 2.0270 -0.3296 0.2337 -0.2104 -1.6730 1.2013 -2.8602 -0.6174 0.4583 0.6476 0.9942 -1.1906 1.2504 -3.2022 2.5606 0.0957 0.7361 -2.4526 -0.3897 -0.6888 0.2967 1.1027 -2.0380 1.6746 0.8040 0.0235 -0.2157 1.0354 2.3863 -1.0386
-4.1022 -0.0541 2.4054 3.0151 2.1905 -2.6389 1.4818 2.7932 1.2092 2.1302 -2.6618 3.7713 -4.6148 -1.5786 -1.0847 0.7329 -4.1067 2.6931 -0.0635 -0.5380 -2.9414 -3.0583 0.4025 1.4165 2.5651 2.5652 -1.3469 0.5727 2.9668 0.1349 0.0995 1.8359 -3.3165 0.2898 2.9458 -2.2941 -1.5510 -0.4145 -0.2748 -3.8639 -0.5494 -0.6906 2.2384 -1.3202 1.3071 2.0873 -0.3127 0.2742 -0.1603 -1.6216 1.2738 -2.8243 -0.6619 0.3667 0.7211 0.9084 -1.2468 1.3057 -3.0308 2.7660 0.2370 0.5689 -2.5161 -0.3282 -0.6976 0.3051 1.1491 -1.9349 1.7984 0.8703 -0.0087 -0.2228 1.0704 2.3143 -1.1483
-4.1783 0.7909 -1.0616 2.7508 2.3308 -2.7451 2.1086 2.6112 1.3443 2.6013 -3.6696 2.6249 -3.7347 -1.4092 2.5237 0.3753 -4.1508 2.6101 -0.6932 -0.0050 -2.7161 -3.6346 -0.6134 -0.9420 2.6007 2.5797 -1.3570 0.9826 2.9214 0.5405 -0.2444 2.3554 -2.8599 0.2453 3.2813 -1.7588 -1.5965 -0.0253 0.2688 -3.5622 -0.5189 1.5465 2.2403 -1.6736 0.8219 2.0549 -0.5105 -0.0300 -0.1373 -1.6816 1.2141 -2.8054 -0.8313 0.3057 0.6326 1.0808 -1.0916 1.3165 -3.4520 2.2629 -0.1440 0.9841 -2.2520 -0.3418 -0.5951 0.4396 1.1807 -2.2409 1.4263 0.8293 0.0189 -0.2268 1.1537 2.4227 -0.8882
-3.8352 1.7809 0.2034 2.8966 3.8879 -1.1474 1.5481 2.6099 1.3786 2.4772 -3.3648 2.9733 -3.4525 -2.6526 1.5888 0.3595 -4.1248 2.6177 -0.1412 -0.2877 -3.0839 -3.9182 0.3447 -0.2558 2.5210 2.5220 -1.2307 0.5768 2.8566 0.3742 0.1064 2.1063 -3.2124 0.2548 3.0943 -2.0634 -1.6568 -0.4594 -0.3121 -3.3962 -1.9105 0.4804 2.1881 -1.5666 0.9649 2.0146 -0.4683 0.0369 -0.2108 -1.6945 1.1510 -2.8893 -0.5074 0.4586 0.6230 0.9670 -1.2330 1.2526 -3.3192 2.4015 0.1740 0.7623 -2.5420 -0.4104 -0.7186 0.2407 1.1110 -2.1445 1.5221 0.7828 -0.0556 -0.3246 1.0243 2.3427 -0.9867
-4.4358 0.8545 1.8922 3.4774 1.7301 -2.0034 -0.5841 3.1288 0.2710 0.2301 -3.7954 2.9013 -4.2521 -2.3996 -0.0419 2.4992 -3.6251 2.9013 -0.2557 -0.1552 -2.9134 -3.4122 0.9056 0.7838 2.8814 2.3410 -0.8704 0.8312 3.0287 0.2960 0.3932 2.1425 -3.1852 0.9336 3.1445 -2.1810 -1.5554 -0.2593 -0.1732 -3.7065 -1.2302 -0.3790 2.2635 -1.4909 1.1247 2.1101 -0.4190 0.1715 -0.1483 -1.6758 1.1846 -2.8094 -0.4602 0.5285 0.7855 1.0237 -1.1529 1.4035 -3.2369 2.5253 0.2509 0.8492 -2.4316 -0.3216 -0.6460 0.3249 1.1725 -2.1079 1.6051 0.8921 0.0074 -0.2198 1.3571 2.3456 -0.9585
-3.9790 1.5826 -0.1759 3.4507 2.2269 -0.3187 1.1231 4.1957 0.4882 0.2784 -3.9447 2.8157 -4.2740 -2.5103 0.4961 2.5397 -3.7154 2.8175 -0.2709 -0.3291 -2.9799 -3.4136 0.8471 1.0195 2.5701 2.4565 -1.4046 0.8007 2.8163 0.3919 0.0531 2.0530 -3.1621 0.2731 3.0445 -2.0291 -1.6249 -0.3512 -0.1079 -3.7802 -1.3895 -0.0315 2.2442 -1.6428 0.9551 2.0544 -0.5596 0.0145 -0.1601 -1.7707 1.1824 -2.8235 -0.5101 0.6914 0.6523 0.9187 -1.1976 1.4356 -3.3530 2.4407 0.1150 0.7157 -2.4745 -0.3672 -0.7429 0.3283 1.1755 -2.2277 1.5203 0.8221 -0.0979 -0.2780 1.1053 2.2879 -1.0017
-3.7074 -0.5427 2.6048 2.9627 2.3151 0.6644 1.0504 4.5114 -0.7243 2.1270 -3.8803 2.6869 -3.7978 -1.7232 -1.7095 0.1194 -3.3046 3.5938 -0.6176 -0.2998 -2.7643 -3.7182 0.1662 1.2724 2.8769 2.1587 -0.7427 0.5755 3.1931 -0.4865 0.2189 1.8927 -3.2921 1.4577 2.5480 -2.7080 -1.5968 0.1357 0.1457 -3.5349 -0.5936 -1.0499 2.0746 -1.7102 1.0833 1.9997 -0.6998 0.0490 -0.3089 -1.4904 1.3561 -2.8595 -0.5736 0.2729 0.7935 0.8644 -1.2596 0.9988 -3.1373 2.7616 0.0563 0.6668 -2.4372 -0.3964 -0.4868 0.4551 0.9495 -2.1223 1.6910 0.8432 -0.0627 -0.2334 1.4334 2.1751 -1.2296
-2.7415 -2.6595 -0.5838 2.5652 2.0145 -3.1403 2.5650 2.5193 0.9935 0.3560 -3.5071 3.2434 -4.7138 0.4928 2.0094 2.3984 -3.9832 2.3552 -1.0936 0.1275 -2.4705 -3.2724 -1.2472 -0.5905 2.6525 2.2957 -1.7534 1.4073 2.9815 0.3178 -0.3697 2.3914 -2.8334 0.3764 3.3013 -1.8717 -1.6240 0.1780 0.4925 -3.9197 0.5155 0.9389 2.1625 -1.6391 0.8188 1.9542 -0.5272 -0.0879 -0.1704 -1.4984 1.4264 -2.8858 -0.5207 0.6802 0.5522 1.1143 -1.0866 1.3907 -3.2939 2.3955 -0.3695 1.0561 -2.1409 -0.3881 -0.4408 0.6130 1.1344 -2.1189 1.5390 0.7507 0.0736 -0.1919 1.2832 2.3744 -1.0727
-4.6860 -2.1302 -0.1702 2.9471 2.2591 -2.7402 2.0249 2.5741 1.3216 2.4403 -3.4974 2.8532 -3.6096 0.5610 2.5409 0.2619 -4.1021 2.6139 -0.4751 -0.0624 -2.8922 -3.7683 -1.0285 -0.6397 2.7174 2.4980 -1.3613 0.9969 2.9442 0.4180 -0.0393 2.3007 -3.0358 0.4097 3.2481 -1.9345 -1.6153 -0.1185 -0.0954 -3.4697 0.5547 1.2145 2.1859 -1.5882 0.9594 2.0515 -0.4644 0.0523 -0.2192 -1.6560 1.1252 -2.8581 -0.5851 0.4836 0.7001 1.0625 -1.1780 1.1926 -3.3547 2.3520 0.0249 0.9391 -2.3989 -0.3775 -0.6042 0.2938 1.0886 -2.1677 1.4776 0.8366 0.0212 -0.2775 1.2399 2.3970 -0.9823
-3.0774 1.3825 1.4794 2.1328 2.5638 1.2635 0.2015 4.4849 -0.3830 0.0678 -3.9177 2.8085 -4.1037 -2.7486 -0.3409 2.2850 -3.5587 3.1705 0.1460 -0.3846 -3.0297 -3.4863 0.6693 0.2134 2.4120 2.5683 -0.1275 -0.0535 3.0864 -0.4065 0.5696 1.9722 -3.2683 1.4375 2.8326 -2.3667 -1.5151 -0.5119 -0.4905 -3.6265 -1.5701 -0.7440 2.1841 -1.5288 1.2418 2.0874 -0.4673 0.2648 -0.2069 -1.8139 1.0539 -2.8145 -0.6825 0.1309 0.8450 0.9259 -1.1858 1.2394 -3.2703 2.6083 0.4842 0.6731 -2.5174 -0.3314 -0.7958 0.1719 1.0747 -2.1815 1.6248 0.8944 -0.0604 -0.2170 1.1540 2.3331 -0.9545
-4.4317 -2.3725 -0.0790 2.9837 2.3208 -2.6034 1.8499 2.7355 1.3576 2.4984 -3.6719 2.6039 -3.6957 0.8256 2.3450 0.2643 -3.8483 2.9944 -0.2472 -0.1770 -2.9965 -3.8378 -1.0730 -0.5692 2.6579 2.5360 -1.2402 0.7970 2.9046 0.4230 0.0176 2.2166 -3.0930 0.3563 3.1856 -1.9678 -1.6230 -0.2200 -0.2223 -3.3909 0.7269 1.0500 2.1667 -1.5114 1.0740 2.0378 -0.4208 0.1330 -0.2394 -1.7285 1.0628 -2.8650 -0.5276 0.4523 0.6971 1.0210 -1.1906 1.2059 -3.3020 2.4392 0.1334 0.8553 -2.4614 -0.3945 -0.6765 0.2280 1.0737 -2.1677 1.5008 0.8238 -0.0080 -0.2804 1.1617 2.3773 -0.9600
-3.6549 1.5223 -0.6319 2.6163 3.9476 -0.2801 -0.0823 2.6627 1.1580 0.3455 -3.7680 2.9913 -3.9698 -2.6129 0.6765 2.6132 -3.6959 2.8056 0.0678 -0.4561 -3.0735 -3.3169 0.9037 0.7066 2.3295 2.5595 -0.3187 -0.1779 2.9103 -0.2354 0.2150 1.9403 -3.2661 1.0216 2.8872 -2.3946 -1.5258 -0.4485 -0.2334 -3.6722 -1.4741 0.0487 2.3299 -1.5739 1.0226 2.1505 -0.5161 0.0552 -0.0765 -1.7632 1.1613 -2.7131 -0.4800 0.5981 0.7707 0.8766 -1.2559 1.5072 -3.2775 2.5000 0.3361 0.6206 -2.5593 -0.2748 -0.7716 0.2658 1.2544 -2.1744 1.5574 0.9170 -0.1097 -0.3050 0.9896 2.2910 -0.9933
-3.2821 1.0514 1.1742 2.2481 4.1718 0.0276 -1.3867 2.6326 -1.2700 2.3248 -2.8842 3.7608 -4.4553 -1.7634 -1.6378 0.4793 -4.0205 3.0663 0.6707 -0.6430 -2.8868 -3.1343 -0.4511 1.2603 2.1407 2.7568 -0.0043 -0.3150 2.8385 -0.3651 0.8483 1.7252 -3.2719 1.2735 2.8301 -2.3197 -1.3764 -0.5873 -0.4365 -3.6356 -0.8348 -1.1444 2.2267 -1.2805 1.6352 2.1405 -0.2641 0.6152 -0.0873 -1.8216 1.1960 -2.6771 -1.0893 -0.0377 0.9717 0.8636 -1.0918 1.2609 -3.0893 2.9475 0.8245 0.4811 -2.4289 -0.2064 -0.8539 0.2576 1.1542 -2.0384 1.9168 0.9887 -0.0375 -0.0469 1.0038 2.3078 -0.9156
-3.8287 -1.0699 -1.5814 3.7213 1.8231 -0.8285 1.6363 4.1791 0.4710 0.0814 -3.9987 2.6519 -3.5330 -0.6259 3.0211 2.2927 -4.2050 2.1588 -0.9994 0.1542 -2.6589 -3.8419 -0.0555 -0.4654 2.6922 2.2443 -1.7050 1.4051 2.7784 0.4205 -0.1869 2.4036 -2.8995 0.4724 3.2566 -1.8331 -1.5928 0.1498 0.3869 -3.4039 0.1038 1.9130 2.0592 -1.9434 0.5161 1.9129 -0.7559 -0.3026 -0.2507 -1.6966 1.1697 -2.8882 -0.4582 0.6369 0.6019 1.0364 -1.1590 1.2288 -3.6160 2.0428 -0.2660 1.0470 -2.2592 -0.4100 -0.5737 0.4323 1.0141 -2.4040 1.2245 0.7544 -0.0659 -0.3332 1.3290 2.2926 -1.0195
-3.6397 -1.8869 2.2589 3.6534 1.6420 -1.3471 0.7768 3.7753 0.6132 0.0678 -3.5645 3.1291 -4.5913 -0.1229 -1.3968 2.3416 -3.4655 3.1182 -0.4942 -0.3686 -2.8492 -3.2235 -0.5044 1.8205 2.6815 2.3866 -0.6331 0.2883 3.2049 -0.5866 0.2021 1.8811 -3.3615 1.3435 2.6522 -2.7171 -1.5741 0.1471 0.1812 -3.8796 0.3171 -0.3588 2.1546 -1.6584 0.9792 2.0267 -0.6353 -0.0346 -0.2168 -1.4542 1.3676 -2.8634 -0.5075 0.3489 0.7560 0.9047 -1.2982 1.2586 -3.0857 2.6989 0.0901 0.6486 -2.5041 -0.3646 -0.4835 0.4369 1.0668 -2.0593 1.6564 0.8492 -0.0225 -0.2767 1.2904 2.2595 -1.2453
-4.2557 -0.8706 -1.5405 2.7333 3.9094 -1.3062 1.5491 2.6235 1.3464 2.6751 -3.6655 2.6540 -3.4730 0.9456 2.2672 0.4549 -3.8827 3.1072 -0.1179 -0.4534 -3.0288 -3.7970 -1.5392 -0.2624 2.4458 2.5197 -1.2791 0.5282 2.7771 0.3724 0.0334 1.9475 -3.2017 0.1237 2.9539 -2.0615 -1.6128 -0.4749 -0.2161 -3.3869 0.5921 0.9838 2.2421 -1.5490 1.0789 2.0580 -0.4858 0.1140 -0.1554 -1.8596 1.1181 -2.8208 -0.7073 0.5442 0.6330 0.8670 -1.2148 1.3702 -3.3295 2.5156 0.1677 0.6180 -2.5125 -0.3612 -0.8458 0.2483 1.1811 -2.2277 1.5494 0.8198 -0.1293 -0.2812 0.9653 2.2665 -0.9947
-4.1447 -0.4035 -1.8578 2.1882 2.4881 1.4208 -0.0242 4.3567 -0.1209 2.4917 -4.0696 2.2730 -3.4645 0.5138 2.2510 0.3291 -3.9987 2.9837 0.1277 -0.2461 -3.0301 -3.7432 -1.3602 -0.7570 2.4164 2.5487 0.0230 -0.0916 2.9400 -0.1246 0.5402 2.1240 -3.1171 1.3652 2.9570 -2.1514 -1.5205 -0.4287 -0.3909 -3.3256 0.4378 0.9270 2.2130 -1.6899 1.0949 2.1185 -0.5495 0.2182 -0.1777 -1.9674 0.8907 -2.7796 -0.7624 0.2466 0.8845 0.9343 -1.1259 1.2380 -3.5559 2.2988 0.4873 0.7741 -2.4592 -0.3063 -0.8585 0.1244 1.1136 -2.4023 1.3885 0.9242 -0.1092 -0.2239 1.1401 2.3275 -0.7817
-4.8637 -2.0615 0.2982 3.0484 3.8451 -1.1777 1.4598 2.6502 1.3038 -0.0784 -3.7114 2.7924 -3.5067 1.1394 2.0633 2.1977 -3.7124 2.7838 0.0989 -0.2997 -3.2361 -3.3855 -1.8787 0.0521 2.6405 2.4880 -1.2166 0.5775 2.8936 0.2208 0.3986 2.0894 -3.3816 0.4507 3.0896 -2.2355 -1.6608 -0.2191 -0.3963 -2.9371 0.0027 1.6601 2.1005 -1.5460 0.9935 2.0021 -0.4728 0.0267 -0.3021 -1.7457 0.9015 -2.9506 -0.4411 0.2402 0.7212 0.9720 -1.3457 1.1334 -3.2662 2.3839 0.3780 0.7557 -2.6847 -0.4362 -0.6988 0.0578 0.9862 -2.1742 1.4035 0.8030 -0.0450 -0.4179 1.1246 2.3468 -1.0897
-3.8103 -2.4606 -0.6395 3.1266 3.6738 -0.5350 0.4431 2.9875 1.0840 2.4309 -3.7092 2.6545 -3.1974 1.0466 2.4431 0.1853 -4.0196 2.8390 -0.4140 -0.2735 -2.9857 -3.9045 -0.9649 -0.4531 2.6423 2.3398 -0.5268 0.2231 3.0893 -0.3122 0.1970 2.0346 -3.2732 1.2655 2.8077 -2.5232 -1.6294 -0.2095 -0.2002 -3.3162 0.7945 1.1388 2.1380 -1.7038 0.9400 2.0301 -0.6039 0.0104 -0.2708 -1.7562 1.0548 -2.8577 -0.4780 0.5241 0.7584 0.8991 -1.2962 1.1391 -3.4154 2.3720 0.1308 0.7256 -2.5376 -0.4023 -0.6997 0.2194 1.0289 -2.2746 1.4388 0.8311 -0.0936 -0.3354 1.2324 2.2640 -1.1007
-4.9077 -1.9416 -0.0585 2.9729 3.7290 -0.0756 0.0998 4.3256 -0.4849 2.3901 -3.8307 2.7685 -3.5154 1.0386 1.9405 0.1363 -3.9744 3.0446 0.1027 -0.4397 -2.9984 -3.7321 -1.2863 -0.7444 2.5298 2.3831 -0.1145 0.0835 2.9273 -0.2487 0.5969 1.9043 -3.2392 1.4742 2.7611 -2.3434 -1.5228 -0.4120 -0.3716 -3.3538 0.7001 0.6604 2.1685 -1.6912 1.2050 2.1058 -0.6022 0.2611 -0.2342 -1.8783 1.0467 -2.8125 -0.6254 0.2602 0.9125 0.8317 -1.1783 1.1123 -3.4485 2.5309 0.5007 0.6021 -2.4956 -0.3300 -0.8238 0.2043 1.0439 -2.3281 1.5709 0.9251 -0.1511 -0.2074 1.2533 2.2301 -0.9325
-3.7822 -2.2625 -0.3817 3.0642 3.6572 -1.6113 -0.5005 2.8645 0.4974 0.2258 -3.6845 3.1490 -4.0787 1.8197 0.8050 2.4995 -3.6053 3.0986 -0.1086 -0.5721 -2.9360 -3.3882 -1.6083 0.9244 2.6822 2.3059 -1.4060 0.8918 2.8262 0.2344 0.2345 1.7887 -3.2943 0.4071 2.8704 -2.2369 -1.5418 -0.3561 -0.0777 -3.6490 0.7367 0.1568 2.2922 -1.6248 1.1049 2.1335 -0.5941 0.0983 -0.1101 -1.6561 1.3505 -2.7212 -0.2546 0.7606 0.7582 0.8107 -1.2278 1.4135 -3.2021 2.7120 0.2641 0.5087 -2.5019 -0.2922 -0.6980 0.4168 1.2080 -2.1329 1.7152 0.9104 -0.1321 -0.2326 1.1874 2.1948 -1.1177
-4.5547 -2.3061 0.4085 3.2616 3.5770 -0.8167 0.4953 2.8623 1.0625 0.1652 -3.8752 2.8006 -3.5680 1.4731 1.8083 2.4242 -3.6299 2.9293 -0.3599 -0.3610 -2.9919 -3.5977 -1.4486 -0.3850 2.6909 2.2916 -0.6369 0.3049 3.0802 -0.3252 0.1817 1.9608 -3.3143 1.2340 2.7743 -2.5841 -1.5718 -0.1821 -0.1241 -3.5938 0.7492 0.6884 2.2189 -1.7093 0.8992 2.0798 -0.6568 -0.0810 -0.1777 -1.6332 1.2159 -2.8264 -0.5152 0.5250 0.7726 0.8708 -1.3229 1.3402 -3.2819 2.4862 0.1517 0.6624 -2.5597 -0.3380 -0.6478 0.3029 1.1300 -2.1789 1.5293 0.8774 -0.1114 -0.3554 1.2596 2.2354 -1.1588
-4.5924 -2.1379 0.7530 3.6318 2.1343 -0.8701 -1.0708 3.2300 -0.7710 0.2286 -4.0913 2.5883 -3.8329 1.7468 0.8655 2.3029 -3.4691 3.2950 0.1818 -0.3166 -2.9789 -3.4603 -1.6942 -0.1430 2.5159 2.5511 -0.0991 0.1153 3.0217 -0.0242 0.5627 2.0530 -3.1711 1.3112 2.9818 -2.2291 -1.4909 -0.3230 -0.2512 -3.5849 0.7440 0.0222 2.2520 -1.6390 1.1382 2.1509 -0.5584 0.1850 -0.1657 -1.6589 1.2593 -2.7821 -0.4516 0.4000 0.8954 0.9524 -1.1219 1.3104 -3.2789 2.6089 0.5181 0.7337 -2.4496 -0.2893 -0.6657 0.3486 1.1338 -2.1576 1.6698 0.9541 -0.0526 -0.1757 1.2043 2.3460 -0.8489
-4.9822 -1.8121 0.0324 3.0464 3.6476 -0.1255 0.1992 4.3469 -0.4859 0.0610 -4.0575 2.7493 -3.4642 1.1212 2.0019 2.3115 -3.8134 2.9843 0.0032 -0.4365 -2.9952 -3.7840 -1.2038 -0.6574 2.5528 2.3200 -0.1583 0.1244 2.9481 -0.2585 0.5409 1.8979 -3.2466 1.4656 2.7294 -2.3734 -1.5362 -0.4322 -0.3246 -3.2948 0.7661 0.7275 2.2029 -1.7452 1.1112 2.1101 -0.6531 0.1713 -0.2126 -1.8644 1.0982 -2.8196 -0.5887 0.3367 0.8727 0.8186 -1.1917 1.2487 -3.4593 2.4970 0.4299 0.5976 -2.5008 -0.3316 -0.8276 0.2372 1.0818 -2.3335 1.5579 0.9150 -0.1740 -0.2308 1.2592 2.2079 -0.9563
-3.7867 -2.6312 0.1530 2.9558 3.6806 -0.5530 0.2720 2.8303 0.9792 0.2544 -3.7286 3.0464 -3.8579 1.8306 0.4886 2.5241 -3.6203 2.9306 -0.3169 -0.5272 -2.9865 -3.7933 -1.1524 -0.1481 2.5573 2.3218 -0.6212 0.1163 2.9920 -0.4209 0.1801 1.7960 -3.3815 1.1624 2.6801 -2.6316 -1.5706 -0.2080 -0.0462 -3.3016 0.8646 1.2236 2.2521 -1.6824 0.9475 2.0850 -0.6707 -0.0691 -0.1430 -1.6363 1.2865 -2.7813 -0.4353 0.7187 0.7409 0.7929 -1.3388 1.4215 -3.2237 2.5843 0.1574 0.5246 -2.5807 -0.3272 -0.6750 0.3524 1.1776 -2.1489 1.6040 0.8703 -0.1557 -0.3450 1.1515 2.1822 -1.1923

>  <OB_ATOM_TYPES> (1b9vA1)
C.3 O.3 O.3 O.co2 C.2 O.co2 O.2 C.3 C.3 C.3 C.3 C.3 N.pl3 C.2 C.ar C.ar C.ar C.3 N.am C.2 C.2 C.ar C.ar C.ar C.3

>  <ENSEMBLE_RMSD> (1b9vA1)
0.692 0.716 0.756 0.883 0.929 0.944 0.947 1.057 1.065 1.074 1.109 1.240 1.249 1.347 1.355 1.406 1.423 1.455 1.502 1.516 1.552 1.555 1.570 1.682 1.784 1.955 2.081 2.082 2.138 2.175 2.200 2.237 2.292 2.318 2.324 2.379 2.380 2.412 2.413 2.433 2.484 2.600 2.626 2.631 2.631 2.659 2.670 2.688 2.698 2.711

$$$$
