
 OpenBabel03071213D

 43 46  0  0  0  0  0  0  0  0999 V2000
   15.3490   23.1820   34.8390 C   0  0  0  0  0
   11.1710   29.4490   36.1970 C   0  0  0  0  0
   13.6250   18.9540   36.4650 C   0  0  0  0  0
    9.9490   23.5970   47.2010 O   0  0  0  0  0
   12.5590   14.9970   40.1160 O   0  0  0  0  0
   14.7120   25.9820   33.1920 C   0  0  0  0  0
    8.1120   30.1260   39.6750 C   0  0  0  0  0
    7.5380   26.8840   42.7650 C   0  0  0  0  0
    7.8210   24.1870   46.9680 O   0  0  0  0  0
   10.4900   15.3940   39.4520 O   0  0  0  0  0
   11.7150   24.2920   42.6930 O   0  0  0  0  0
    9.8890   20.2130   39.2990 O   0  0  0  0  0
    9.1820   24.5690   44.3560 C   0  0  0  0  0
    9.4510   25.3210   45.6450 C   0  0  0  0  0
   12.0040   17.2410   39.4920 C   0  0  0  0  0
   11.2760   17.7250   38.2250 C   0  0  0  0  0
   12.4050   26.7620   36.6830 C   0  0  0  0  0
   13.5360   21.9610   36.9110 C   0  0  0  0  0
   10.6960   25.6820   41.2260 N   0  0  0  0  0
   12.5960   24.2820   37.1120 N   0  0  0  0  0
   10.6810   26.6020   38.4510 N   0  0  0  0  0
   14.4920   26.3190   34.6680 C   0  0  0  0  0
    9.0600   29.9920   38.4760 C   0  0  0  0  0
    9.0300   27.1870   40.1440 C   0  0  0  0  0
   11.5360   21.4250   38.2990 N   0  0  0  0  0
    9.5900   25.3280   43.1660 C   0  0  0  0  0
    9.0430   24.3030   46.6920 C   0  0  0  0  0
   11.6640   15.7730   39.6990 C   0  0  0  0  0
   14.2670   23.8820   35.5750 C   0  0  0  0  0
   10.7800   28.5120   37.2650 C   0  0  0  0  0
   12.6560   19.6920   37.2970 C   0  0  0  0  0
   10.8030   25.0540   42.3730 C   0  0  0  0  0
    8.8380   26.2680   42.4250 C   0  0  0  0  0
   10.9170   20.3000   38.6360 C   0  0  0  0  0
   13.4230   23.3020   36.5430 C   0  0  0  0  0
   11.3340   27.2410   37.4410 C   0  0  0  0  0
   12.9030   25.4730   36.4620 C   0  0  0  0  0
   12.5920   21.0920   37.4660 C   0  0  0  0  0
    9.5120   26.4220   41.2100 C   0  0  0  0  0
    9.7500   27.4850   38.9910 C   0  0  0  0  0
   11.6000   19.1490   38.0190 C   0  0  0  0  0
   13.8980   25.2420   35.4920 C   0  0  0  0  0
    9.8030   28.7170   38.2820 C   0  0  0  0  0
  1 29  1  0  0  0
  2 30  1  0  0  0
  3 31  1  0  0  0
  4 27  1  0  0  0
  5 28  1  0  0  0
  6 22  2  0  0  0
  7 23  2  0  0  0
  8 33  2  0  0  0
  9 27  2  0  0  0
 10 28  2  0  0  0
 11 32  2  0  0  0
 12 34  2  0  0  0
 13 14  1  0  0  0
 13 26  1  0  0  0
 14 27  1  0  0  0
 15 16  1  0  0  0
 15 28  1  0  0  0
 16 41  1  0  0  0
 17 36  1  0  0  0
 17 37  1  0  0  0
 18 35  1  0  0  0
 18 38  1  0  0  0
 19 32  1  0  0  0
 19 39  1  0  0  0
 20 35  1  0  0  0
 20 37  1  0  0  0
 21 36  1  0  0  0
 21 40  1  0  0  0
 22 42  1  0  0  0
 23 43  1  0  0  0
 24 39  2  0  0  0
 24 40  1  0  0  0
 25 34  1  0  0  0
 25 38  2  0  0  0
 26 32  1  0  0  0
 26 33  1  0  0  0
 29 35  2  0  0  0
 29 42  1  0  0  0
 30 36  2  0  0  0
 30 43  1  0  0  0
 31 38  1  0  0  0
 31 41  2  0  0  0
 33 39  1  0  0  0
 34 41  1  0  0  0
 37 42  2  0  0  0
 40 43  2  0  0  0
M  END
>  <MOLID> (1bbpA1)
1bbpA1

>  <SMILES_CANONICAL> (1bbpA1)
C=Cc1c(/C=C/2\NC(=O)[C@@H](C2=C)CCC(=O)O)[nH]c(c1C)Cc1[nH]c(c(c1C=C)C)CC1=NC(=O)C(=C1C)CCC(=O)O	

>  <FINGERPRINT> (1bbpA1)
0000000001001011000000100101111010001001001001000101100011000010000010000011001000001011000100100001011000110000001111100001000100100011000010100000000000101100000011000000101000000000010100011001000100001000001001101010000000111001000000000001010000001110000101011000000000001101011000000010110000011011100000001001101100000000001100011010001000000100010000001000000100011010000010000000010000000110100000101111101000001001101000011010000010000001000010010000001000000100001000110000000001011100000000011100111000100000000000001000110000000000000111100100000001000001000001010000000001110001001000000000100000010010001000001010001001000001000000010001000011100001000100000011101000010110100111101001000001100001100000001100100000101001000000100101011100001000000110000000110100101100000000001000000000100010000000100000000000000011010010000100100001110100000010001101000001000100100111111000000010011110010010000100000010010100100001101010011011000000000000110110111000000000000100101010010000100011000000010010011000100010

>  <MACCS166> (1bbpA1)
000000000000000000000000000000000100000000001000010010000000000010000000000101010010000001110001001000010001011000011111101010110011000110111111011011100111111110011000

>  <OB_MW> (1bbpA1)
584.263

>  <OB_logP> (1bbpA1)
4.8137

>  <OB_PSA> (1bbpA1)
164.71

>  <OB_MR> (1bbpA1)
174.368

>  <OB_ATOMIC_CHARGES> (1bbpA1)
0.0323134536 0.0323241056 0.0318805928 -0.2456535361 -0.2456417818 2.93918e-05 3.965e-05 -0.002787915 -0.2456535361 -0.2456417818 -0.2726426883 -0.2683759604 0.0253986007 0.1148896164 0.1188618939 0.0425372236 0.0910917498 0.0882371866 -0.1792028233 -0.2535380347 -0.2495632535 0.0009062557 0.001220124 0.0353520732 -0.1800298048 0.1025391624 0.3648831183 0.3652042527 -0.0067854909 -0.006462776 -0.0097349681 0.249229472 0.0016138967 0.264435397 0.0604043895 0.0609965662 0.0642409723 0.0531699365 0.0713301055 0.0819011017 0.0307092982 0.0111086255 0.0148661389

>  <MCT_HBD> (1bbpA1)
5

>  <MCT_HBA> (1bbpA1)
10

>  <ENSEMBLE_TOTAL> (1bbpA1)
50

>  <ENSEMBLE_COORDS> (1bbpA1)
2.9585 -0.7530 -5.3472 -0.0702 4.7936 -3.4019 3.2109 -5.0174 -2.8092 -3.3664 0.2498 8.2210 -0.6280 -7.8457 0.9845 1.7260 2.5930 -5.9916 -3.3755 5.6304 -0.8650 -2.5280 4.5034 4.2008 -1.6105 -0.6430 7.0683 1.1165 -9.1198 0.2484 -1.4723 -0.0764 3.4278 -1.2082 -4.1433 -1.0093 -2.7686 1.7239 5.3957 -2.1968 1.6823 6.7944 1.1287 -6.7332 -0.0870 0.6447 -6.4359 -1.4896 1.9776 2.8323 -1.9581 2.7606 -2.0071 -2.4585 -1.4576 1.8557 2.1132 1.9852 0.3248 -1.9508 0.3036 3.1334 -0.1286 2.4989 2.3601 -4.9302 -2.0766 5.7171 -1.1550 -1.3684 4.1400 1.3976 0.4897 -2.7277 -1.7531 -1.6812 2.1340 4.4310 -2.3374 0.2997 7.3420 0.5635 -8.0375 0.3700 2.4571 -0.1178 -4.1115 -0.1654 4.2007 -2.0528 1.9434 -4.4298 -2.3455 -1.5634 1.1355 3.2971 -1.9175 3.4262 3.7017 -0.0968 -3.9426 -1.4733 2.3167 -0.6633 -2.8873 0.6745 3.3287 -1.4608 1.9480 1.5304 -2.6704 1.6662 -3.0017 -2.2297 -1.6363 3.1997 2.3069 -0.8186 3.9527 0.0849 0.8743 -5.0094 -1.8007 2.2355 1.3220 -3.9759 -1.1366 4.6352 -1.0423
3.9711 -1.2012 -2.5517 -1.7389 4.4438 -3.6021 1.8480 -5.1470 -3.8668 -2.7340 1.3071 8.1462 1.1235 -9.3357 -0.6370 4.5825 2.4165 -2.9540 -3.8557 5.2376 0.0541 -1.4245 4.3963 4.3451 -3.2340 3.3649 7.2965 2.7961 -8.0919 -1.5664 -0.5336 -0.1783 3.4480 -1.1920 -4.1888 -0.2073 -0.9325 1.6941 5.7411 -2.4385 1.6117 5.8434 0.9376 -7.0083 -0.4783 0.0424 -6.5287 -1.5967 0.8371 2.7385 -3.0391 1.1791 -2.1510 -3.7624 -0.9075 1.7113 2.1158 0.6562 0.2523 -3.3057 0.0029 3.0334 -0.6703 3.6684 1.9363 -2.1080 -2.8336 5.3504 -0.7952 -1.0857 3.9779 1.3451 -0.1243 -2.8166 -1.7602 -0.4245 2.0745 4.3731 -2.8439 2.2168 7.1485 1.7327 -8.1732 -0.9708 2.7293 -0.4215 -2.7245 -1.2569 3.9406 -2.2999 1.0047 -4.5327 -2.8290 -0.6572 1.0285 3.3033 -0.8950 3.3404 3.7228 -0.4457 -4.0123 -1.1576 1.5388 -0.8295 -3.2055 -0.1755 3.1765 -2.0494 1.3785 1.3687 -2.8607 0.6948 -3.1121 -2.7236 -1.0333 3.0623 2.3141 -1.0380 3.7656 -0.0716 0.2595 -5.0952 -1.8781 2.6396 1.0232 -2.5143 -1.8182 4.3548 -1.0106
1.6993 -1.3073 -5.2573 -0.0556 5.1833 -3.1678 3.2957 -4.5038 -0.6083 -4.0469 0.2305 7.0031 2.7215 -7.9853 -1.4909 0.3146 1.8296 -6.0675 -2.5532 6.3623 0.1105 -1.0860 4.5360 4.7292 -4.4271 0.0848 4.7586 1.7675 -9.1450 0.2274 -1.3707 -0.0479 3.3932 -1.5058 -4.5597 -1.3056 -1.7286 1.6988 5.8135 -3.2090 1.9592 5.6535 0.5479 -7.3786 -0.8766 0.6289 -6.1745 0.0343 1.8078 2.7753 -2.3233 2.4369 -2.1095 -2.3038 -1.0888 1.9816 2.2627 1.8332 0.2997 -1.9353 0.5957 3.1509 -0.1583 1.3237 1.8504 -5.1959 -1.3788 6.2156 -0.5043 -0.5523 4.2584 1.7385 0.1621 -3.0808 -1.9920 -0.8997 2.0204 4.5936 -3.9476 0.6616 5.7231 1.7225 -8.2673 -0.6210 1.6073 -0.4734 -4.0415 -0.0120 4.4796 -1.8698 1.9009 -4.2411 -0.9976 -1.1941 1.1610 3.3821 -0.9023 3.4108 4.0360 -0.3403 -4.1994 -1.3630 1.8718 -0.8249 -2.7681 0.7397 3.4162 -1.5227 1.5460 1.3864 -2.7799 1.4430 -3.0976 -1.7787 -0.9007 3.2980 2.5982 -0.2901 4.1267 0.3335 0.7886 -4.9292 -0.7450 1.4062 0.9755 -4.0620 -0.6712 4.9730 -0.6551
4.4881 -0.5194 -2.4015 -2.2696 3.7303 -3.8726 -0.2326 -4.3738 -3.4034 -1.9682 0.7507 7.7178 -0.3770 -9.2311 -0.3569 4.3958 2.9010 -3.3625 -4.3563 4.8020 -0.2734 -1.7554 4.9774 3.9608 -2.4327 -0.2789 5.7357 -0.5480 -8.5320 -2.5227 -0.0204 0.5500 3.7059 1.8825 -4.5017 0.9634 -0.8419 2.6342 5.7191 -2.2592 2.1210 5.8347 0.7539 -7.2681 -0.9329 -0.0950 -6.0466 -0.6593 0.5515 2.5365 -3.2111 1.9475 -2.2195 -3.1814 -0.7949 2.1050 2.1375 0.8896 0.0565 -3.0193 -0.2337 3.0781 -0.8636 3.5299 2.5134 -2.4235 -3.3901 4.9124 -1.1858 -1.4004 4.1528 1.0454 2.1522 -3.0863 -0.8704 -0.3828 2.8859 4.3036 -2.2275 0.7333 6.3887 -0.1310 -8.3837 -1.3842 3.0932 -0.0566 -2.5464 -1.6701 3.5212 -2.5387 0.5604 -4.1320 -2.1878 -0.3994 1.6704 3.3995 -1.0744 3.9325 3.4843 1.6112 -4.1431 -0.1721 1.9959 -0.7821 -2.8377 -0.4767 2.9729 -2.2368 1.3748 1.3614 -2.8322 1.5571 -3.0816 -2.0245 -1.1749 3.4222 2.1389 -1.3558 3.7351 -0.3255 0.6292 -4.8195 -1.0484 2.7007 1.3508 -2.5618 -2.2458 4.0489 -1.2991
3.7590 -1.1893 -2.4814 -2.1936 3.7060 -3.3364 2.4229 -4.6365 -3.9470 -3.0339 0.7014 7.5769 -0.0497 -7.7288 0.9749 4.7580 2.2088 -2.3654 -4.2452 3.6802 -0.2832 -0.7162 4.4162 4.4826 -3.3419 2.9193 7.1253 1.5901 -8.7838 -0.2080 -0.2198 -0.2068 3.2754 -1.3578 -4.2316 -0.9285 -0.8332 1.5557 5.6373 -2.3341 1.4668 5.4818 1.2533 -6.4051 -0.4467 0.6409 -6.2660 -1.8207 0.8999 2.9679 -3.0396 1.1132 -1.8550 -4.1754 -0.6538 1.7678 2.1060 0.6849 0.5397 -3.6037 0.3275 3.4516 -0.6450 3.5657 1.9268 -1.8374 -3.1781 4.4708 -0.4105 -0.8017 4.0706 1.4686 -0.3585 -2.7291 -2.4009 -0.1089 1.9654 4.3773 -2.9541 1.8075 6.7983 0.9680 -7.7735 0.0831 2.6195 -0.3093 -2.8105 -1.3699 3.6565 -2.1136 1.2936 -4.1872 -3.1160 -0.3548 1.0074 3.2282 -0.4775 3.2976 3.7933 -0.5072 -3.9325 -1.7488 1.4920 -0.5994 -3.4908 -0.0677 3.3315 -1.9811 1.3963 1.5692 -2.9695 0.6616 -2.8770 -3.1880 -0.7226 3.1066 2.3898 -0.8240 3.8516 0.0515 0.5560 -4.8478 -2.2244 2.5788 1.1203 -2.4930 -1.8772 3.9954 -0.7848
2.0648 -1.5197 -4.4465 -1.1213 3.5565 -3.4564 3.7607 -4.5976 -1.4456 -4.2353 1.2225 7.3141 1.0176 -9.1803 -1.9600 0.1615 1.3160 -5.5523 -3.7746 3.2856 -1.4013 -1.6003 5.1582 4.3169 -3.0156 -0.3534 6.2011 -1.1078 -8.4450 -1.5734 -0.0062 0.6213 4.3061 -1.0128 -4.0466 -0.7876 -1.6616 2.4837 5.9832 -2.9806 1.9456 5.4757 0.6250 -6.8865 -2.1961 1.0373 -6.2109 -0.9103 1.8649 3.1363 -2.4182 3.0016 -1.6023 -1.3788 -0.4055 2.2358 2.6544 2.4875 0.8322 -1.6269 0.6998 3.6385 -0.2399 1.3773 1.5298 -5.0428 -2.8731 4.1250 -0.8845 -0.9426 4.2728 1.5045 0.7130 -2.5098 -1.0899 -0.6901 2.8816 4.8942 -3.3863 0.8015 6.3463 0.0586 -8.2287 -1.8636 2.1562 -0.4118 -3.4770 -0.6117 3.6218 -2.0728 2.3804 -4.0990 -1.3183 -0.3415 1.7427 3.9555 -1.1168 3.9685 3.9577 0.1588 -3.7660 -0.9772 2.5352 -0.4513 -2.1836 0.6490 3.4586 -1.6299 2.0299 1.6714 -2.6557 1.9838 -2.6969 -1.2828 -0.8507 3.5309 2.6104 -0.6241 3.8885 0.1586 1.2438 -4.7624 -1.1052 1.8118 0.9733 -3.7940 -1.4602 3.8696 -0.9079
3.2681 -1.1139 -4.8731 -1.1017 3.6478 -3.4219 2.9782 -4.2506 -3.8327 -4.3214 3.6249 7.0927 -0.3422 -8.9250 -3.2068 1.2964 1.6825 -5.9684 -4.1020 4.3135 -0.4201 -2.2328 4.7064 4.4116 -3.5282 2.0367 8.5258 -0.9568 -8.2910 -1.1024 -0.2268 0.3699 4.3888 0.7870 -5.1676 0.3930 -1.4690 2.3294 6.2675 -2.9352 1.9706 6.1883 -0.0262 -6.6778 -2.6341 1.4104 -6.5098 -2.1976 1.6026 2.6856 -2.0470 3.3874 -1.9148 -1.8100 -0.8685 1.8935 2.7320 2.1629 0.2720 -1.6313 0.1763 2.9870 -0.0256 2.1146 1.8362 -4.9264 -2.9576 4.5764 -1.0528 -1.4728 3.9040 1.5725 1.8960 -3.2818 -0.4161 -0.8381 2.6643 4.9387 -3.6040 2.5200 7.4065 -0.4903 -8.0304 -2.2009 2.6749 -0.4090 -3.7193 -0.8406 3.3949 -1.9905 2.3611 -4.1807 -2.4994 -0.6316 1.4671 4.0354 -1.4834 3.6690 4.0331 1.3794 -4.5569 -0.4830 2.6810 -0.7647 -2.4190 0.2880 2.9340 -1.4160 1.8429 1.3039 -2.5295 2.4794 -3.0745 -1.5574 -1.3543 3.1753 2.6850 -1.0905 3.5332 0.2402 1.6982 -5.1131 -1.8158 2.1338 0.9465 -3.8010 -1.7444 3.8170 -0.9131
3.6736 -1.3807 -1.8755 -1.7274 3.1821 -3.6101 1.7262 -4.8571 -4.3687 -1.0863 2.9226 8.5659 1.6555 -9.0559 -2.2480 4.6553 2.4472 -1.5507 -4.1588 2.9919 -1.1448 -2.0798 4.7269 4.1004 -3.0585 2.9413 7.4188 0.3753 -9.0533 -0.3602 -1.4299 0.0259 3.5236 -0.7719 -4.0396 -0.2882 -0.6838 2.1540 5.4998 -1.2617 1.4858 6.7282 1.2857 -6.9886 -1.2178 0.1580 -6.3211 -1.9693 1.3459 3.0131 -2.8569 1.2728 -1.8411 -3.9547 -1.2057 1.8993 2.1485 1.0761 0.6249 -3.5837 0.3804 3.5723 -0.5987 3.6008 1.7202 -1.1778 -3.2462 3.9398 -0.9259 -1.1301 4.1300 1.2854 0.1338 -2.6077 -1.8875 -1.7357 2.2679 4.4159 -1.9213 2.5234 7.5788 1.0303 -8.4615 -1.2040 2.7307 -0.3943 -2.4363 -1.0987 3.3875 -2.2912 1.0539 -4.2861 -3.1905 -1.4402 1.2356 3.3444 -1.5915 3.5639 3.6607 -0.1479 -3.8276 -1.3149 1.7168 -0.5886 -3.3032 0.2039 3.3118 -1.9631 1.7511 1.5856 -2.8162 0.8197 -2.8657 -2.9598 -1.2964 3.2573 2.2835 -0.9097 3.8035 -0.0926 0.4182 -4.8840 -2.1837 2.7560 1.0280 -2.1062 -1.8384 3.7114 -1.0739
2.3677 -1.0408 -5.4529 -0.3985 5.1876 -3.1365 1.2529 -2.1478 0.0726 -4.0727 -1.0106 4.3362 0.5034 -5.6999 2.7920 0.4687 1.9267 -6.2052 -2.8860 5.8685 0.3864 -1.3241 3.7674 4.6638 -3.5411 -1.1526 6.5514 -0.9823 -7.1567 1.8537 -0.9380 -0.6889 3.0048 0.8595 -5.9005 -2.9833 -1.5570 0.8417 5.5311 -3.0504 0.8532 5.2974 0.6910 -6.0761 0.4933 -0.0945 -5.0464 -0.2864 1.7561 2.9844 -2.4929 3.0627 -1.7675 -2.4322 -0.9428 1.4370 2.0285 2.1432 0.5376 -2.1201 0.5121 3.0028 -0.3091 1.5218 2.0223 -5.3922 -1.8247 5.8264 -0.4192 -0.7389 3.7996 1.6722 2.0342 -3.8907 -3.1107 -0.7415 1.3307 4.3580 -3.5640 -0.5352 5.4976 -0.0427 -6.3821 1.7574 2.1225 -0.2400 -4.2364 -0.2661 4.3855 -1.9032 1.3433 -3.1002 -1.0450 -0.9255 0.5303 3.0839 -0.9225 2.7473 3.9017 1.2043 -4.8213 -2.5273 2.3771 -0.5631 -2.9532 0.6169 3.4017 -1.6437 1.7408 1.5792 -2.9711 2.1178 -2.9107 -2.2635 -0.9246 2.7381 2.4601 -0.4879 3.8135 0.2593 0.7928 -4.3036 -1.2034 1.7141 1.1649 -4.2588 -0.9772 4.6881 -0.6551
1.7296 -2.0094 -4.1041 0.1148 4.8721 -3.4982 3.5535 -4.8822 -2.1508 -2.5072 1.7478 8.3388 1.5424 -7.4996 -4.1002 -0.1228 1.1119 -5.1460 -2.9524 6.1520 -1.0324 -2.2923 5.1725 4.0572 -2.0697 -0.0554 7.0109 1.4426 -9.3654 -2.7893 -2.2955 0.4555 3.4247 -0.5707 -4.9728 0.4054 -3.0876 2.5656 5.4457 -1.8048 2.1802 6.1456 0.4064 -7.3080 -2.0676 1.3157 -6.8516 -0.9505 1.8874 2.6415 -2.1472 2.8500 -2.0749 -1.0916 -1.5371 2.2756 2.1601 2.1947 0.3224 -1.2743 0.4044 3.2365 -0.1973 1.1281 1.0523 -4.6864 -1.6272 6.1189 -1.1799 -1.0972 4.4932 1.3477 0.8523 -3.2332 -0.2135 -2.9633 2.7413 3.9530 -2.1366 1.1527 7.1798 1.1850 -8.1885 -2.9902 1.7749 -0.9218 -3.1059 0.0092 4.3342 -2.1266 2.3320 -4.5718 -1.3912 -2.2204 1.6546 3.2038 -2.3508 4.0002 3.4220 0.4211 -4.5409 -0.1574 2.2108 -0.9623 -1.8307 0.7312 3.3513 -1.5539 1.7364 1.1725 -2.2916 1.9467 -3.2512 -0.9103 -1.5905 3.6427 2.2491 -0.5706 4.2202 0.0427 1.3939 -5.3778 -0.8954 1.4672 0.4747 -3.4184 -0.8336 4.9242 -1.0858
0.9192 -1.6037 -4.8875 0.2284 5.3068 -3.2483 3.4852 -5.0571 -2.1326 -4.5976 0.0651 4.8360 1.9691 -8.0593 -2.7058 -0.8547 1.4781 -5.3321 -2.1373 6.7541 0.0704 -1.0836 4.7082 4.6029 -4.4090 0.5796 7.0504 1.9087 -9.5416 -0.9720 -1.7465 0.1647 3.2443 -0.3996 -4.3464 0.6856 -2.0399 1.9592 5.6619 -3.5181 2.0687 5.3666 0.7030 -7.4555 -0.8335 1.5477 -6.5043 -0.0177 1.7762 2.6972 -2.4143 2.6009 -2.1372 -2.2492 -1.2450 2.1603 2.1282 2.0239 0.2687 -1.9025 0.5895 3.1886 -0.2486 0.4121 1.5353 -4.9186 -1.0267 6.4583 -0.6056 -0.4959 4.3850 1.6327 0.7883 -2.9294 -0.7365 -1.1461 2.1866 4.4663 -4.2030 0.8396 5.8748 1.5923 -8.4732 -1.4723 1.1807 -0.6791 -3.7657 0.1736 4.5971 -1.9539 2.2952 -4.5413 -1.4366 -1.4647 1.3535 3.2418 -1.0116 3.5705 3.9098 0.4955 -4.1243 -0.1150 1.8506 -0.9193 -2.6214 0.7941 3.4535 -1.6051 1.4419 1.2768 -2.6874 1.8240 -3.1618 -1.4843 -0.9597 3.4567 2.4730 -0.2004 4.2480 0.2351 1.4817 -5.1322 -0.5624 0.9157 0.7601 -3.8219 -0.4579 5.1454 -0.7491
2.1982 -1.0293 -5.5084 -0.2484 5.1990 -3.1316 1.3689 -2.1937 0.0646 -3.9441 -1.2166 4.2763 0.6367 -5.6012 2.8320 0.3282 1.9843 -6.1042 -2.7803 5.9631 0.3553 -1.3838 3.8207 4.6550 -3.5342 -1.2240 6.5210 -0.8476 -7.1231 2.0018 -0.9796 -0.6455 3.0114 0.7022 -5.9104 -2.9874 -1.6704 0.9000 5.5235 -3.1430 0.7680 5.2087 0.7526 -6.0607 0.5430 -0.0682 -5.0560 -0.2332 1.8335 2.9423 -2.4351 3.0314 -1.8342 -2.5440 -0.9593 1.4783 2.0318 2.1805 0.4824 -2.1377 0.5497 3.0078 -0.2751 1.4212 2.0486 -5.3425 -1.7217 5.8825 -0.4509 -0.7324 3.8376 1.6745 1.9110 -3.9256 -3.1739 -0.8253 1.3767 4.3665 -3.5460 -0.6526 5.4415 0.0706 -6.3333 1.8433 2.0332 -0.2492 -4.2653 -0.1605 4.4015 -1.8912 1.3683 -3.1380 -1.0635 -0.9716 0.5738 3.0889 -0.9879 2.7924 3.9018 1.0981 -4.8425 -2.5464 2.3460 -0.6050 -3.0037 0.6919 3.3973 -1.6089 1.7595 1.5504 -2.9455 2.0701 -2.9554 -2.3263 -0.9498 2.7804 2.4604 -0.4431 3.8445 0.2685 0.7801 -4.3266 -1.1965 1.6563 1.1645 -4.2382 -0.8911 4.7267 -0.6601
3.4203 -0.3338 -4.6104 -0.3231 5.1041 -3.1254 3.4759 -4.4316 -0.8007 -4.3454 1.3363 8.1548 1.1132 -9.2341 0.0115 0.8216 1.6617 -6.3317 1.1018 6.7822 -0.0084 0.1324 3.6898 4.7093 -3.7987 -0.2195 6.5783 2.1194 -7.5029 1.1058 -3.4748 0.7984 3.3853 -0.5212 -5.1029 -3.4696 -2.6152 2.5147 5.6820 -2.3867 1.7030 6.9371 0.5731 -7.0698 -0.6946 1.4452 -6.6830 -1.8670 -0.7449 1.9456 -2.8284 2.4699 -1.7537 -1.9164 -2.0695 2.2971 2.2748 0.7225 0.0384 -2.1069 -0.5612 2.5990 -0.4199 1.3088 1.9948 -5.1354 -0.0981 6.2178 -0.1549 -0.2923 3.8104 1.7256 0.7031 -3.1942 -2.9307 -1.7188 1.9892 4.5817 -3.5724 0.8255 7.1679 1.3684 -7.9236 0.2392 2.2700 -0.0001 -3.7479 -0.3888 4.2924 -1.8938 2.2753 -4.2978 -1.6410 -2.5642 1.6144 3.3782 -0.8178 3.0537 4.0208 0.4085 -4.5379 -2.9123 1.8626 -0.5978 -2.6116 -0.5569 2.9616 -1.7684 0.4391 1.0696 -3.0155 1.7712 -3.0504 -2.2044 -1.0370 3.1338 2.6022 -0.3953 3.7931 0.2972 1.4230 -5.2220 -2.0827 1.3286 1.0816 -4.0310 -0.2722 4.8466 -0.5429
2.8779 -0.8049 -5.1260 0.9111 5.5035 -2.7544 0.7563 -5.3167 -3.5101 -2.8408 -0.0072 7.7890 1.3451 -8.8325 0.6495 2.1442 2.5737 -6.1999 0.2083 6.8894 0.8627 -0.5113 2.8644 4.6633 -5.0633 0.1514 7.2933 1.7936 -7.2755 2.2566 -4.2785 1.2477 2.3076 2.6301 -3.4147 0.5405 -3.1526 1.4328 5.0398 -3.4293 0.0277 5.5266 0.9107 -6.5963 0.1176 2.0862 -6.0806 -0.6813 -0.3440 2.6221 -3.2325 0.5222 -2.2538 -3.5510 -2.3600 2.4369 1.6992 -0.0440 0.1398 -3.0702 -0.3783 2.7037 -0.7190 2.2571 2.3112 -4.8963 0.9863 5.9111 0.3959 -0.1462 3.3567 1.6633 1.6764 -2.4419 -1.3519 -2.3335 1.3536 3.7746 -3.8951 0.0790 6.9434 1.4094 -7.5698 1.1350 1.8049 -0.1957 -4.3158 0.4588 4.5237 -1.7471 1.2424 -4.4442 -2.4293 -3.1595 1.6773 2.5459 -1.1835 2.3109 3.6511 2.0978 -3.4845 -0.5562 0.8291 -0.8081 -3.6171 -0.0546 3.2940 -1.9439 0.4471 1.3888 -3.4828 1.1844 -2.9860 -2.4238 -1.1845 2.8073 2.2976 -0.0348 3.6476 0.2634 1.7877 -4.7517 -1.2529 1.5503 1.2436 -4.2513 0.4763 4.7661 -0.3032
2.8913 -0.6717 -5.1418 0.3036 5.6440 -2.7444 0.7861 -5.2884 -3.5076 -5.4426 0.5756 5.3481 1.1723 -8.8964 0.4287 2.1493 2.5748 -6.1843 -0.1797 6.7435 1.2476 0.0440 2.8288 4.7169 -4.4635 0.4467 7.4048 1.8080 -7.5819 2.1824 -3.4413 0.2728 2.6758 2.5749 -3.4564 0.6127 -2.1864 0.8220 5.3883 -3.4037 1.6862 5.6216 0.8774 -6.5867 0.1921 2.0332 -6.1024 -0.6538 -0.4452 2.5895 -3.1636 0.6339 -2.2295 -3.5452 -1.9621 1.9275 1.9310 -0.0065 0.1303 -2.9941 -0.3407 2.6729 -0.6459 2.1494 2.4161 -4.8591 0.5783 6.0683 0.3817 -0.0609 3.3764 1.7206 1.7002 -2.4496 -1.3013 -1.5464 0.9896 4.0326 -4.4639 0.8367 6.2471 1.3515 -7.7097 1.0565 1.8283 -0.1141 -4.2813 0.1013 4.6037 -1.7163 1.2454 -4.4363 -2.3991 -2.4830 1.0120 2.8422 -0.6614 2.1731 3.7933 2.0720 -3.5068 -0.4992 0.8957 -0.7742 -3.5667 -0.1961 3.3007 -1.8871 0.4168 1.4034 -3.4102 1.2270 -2.9768 -2.3900 -0.8864 2.6107 2.4379 -0.1092 3.6701 0.3177 1.7553 -4.7634 -1.2123 1.5103 1.3130 -4.2015 0.1733 4.8558 -0.2748
0.9867 -0.8282 -5.5180 -0.3093 4.0349 -2.8664 0.3634 -4.5887 -4.0625 -5.3017 1.6130 6.9748 2.1006 -8.2359 0.4315 1.9344 2.3068 -6.0498 -2.8413 4.8188 -0.9957 -0.9657 4.1733 5.0799 -4.4540 3.7275 6.7776 2.2274 -9.5042 -1.4597 -1.9051 -0.1664 3.2837 2.1876 -4.4436 0.4287 -2.4557 1.5226 5.7149 -3.7986 2.0091 5.2208 1.0997 -7.3711 -1.4992 2.0589 -6.2818 -1.9164 2.2865 2.4433 -1.8510 -0.1670 -1.8304 -2.7313 -0.9836 1.8041 2.4329 1.0709 0.2299 -1.9731 1.3351 3.1926 0.3353 2.4730 1.9369 -4.8842 -1.7839 5.0393 -0.2110 -0.1069 4.0141 2.1626 1.0091 -2.8788 -0.8334 -1.3138 1.6968 4.7430 -4.5317 2.5676 6.3990 1.8754 -8.4879 -0.8790 1.1751 -0.2319 -4.1783 0.1664 3.8364 -1.4805 0.7695 -4.2361 -2.6936 -1.4876 0.9717 3.4248 -0.8988 3.0739 4.3271 1.6097 -4.0941 -0.5857 0.7220 -0.6711 -2.9881 1.2574 3.1673 -1.0602 1.7532 1.2805 -2.6172 0.5622 -2.9447 -2.0498 -0.6369 3.0405 2.9131 0.1875 3.8845 0.7633 1.4525 -4.9402 -1.7910 1.8370 1.0574 -3.9473 -0.5594 4.2924 -0.2905
2.8974 -0.6636 -4.9024 0.2880 5.4898 -2.6489 -0.7565 -4.8475 -2.4325 -4.7073 1.3478 7.2089 2.7148 -8.2073 1.2483 2.0486 2.8858 -5.7244 -0.1499 6.8504 0.7453 0.2107 2.7041 4.8135 -5.3867 1.2648 5.0309 1.0400 -8.8946 -0.1429 -3.2780 0.1100 2.8254 3.1248 -3.4938 0.1492 -2.1961 0.9450 5.5093 -3.1884 2.0840 5.5862 2.1211 -6.7669 -0.4955 1.1446 -5.7292 0.0094 -0.6383 2.4771 -3.0610 0.5169 -2.3215 -3.6274 -1.7620 1.7112 2.0439 -0.2693 0.0068 -3.1150 -0.3248 2.5006 -0.5602 2.1319 2.4044 -4.4828 0.6992 5.8581 0.4768 0.1316 3.1561 1.7979 2.0819 -2.5699 -1.7144 -1.4267 0.8813 4.2098 -4.5407 1.5175 5.8752 1.8654 -8.0628 0.2025 1.7068 -0.1541 -4.1932 0.1093 4.4369 -1.6278 0.4151 -4.1694 -1.8510 -2.3129 0.8431 2.9805 -0.4723 2.0003 3.9076 2.2574 -3.4910 -0.7086 0.7024 -0.8549 -3.6315 -0.2649 3.1543 -1.7964 0.2027 1.2997 -3.3897 1.0302 -2.9539 -2.3719 -0.6805 2.3946 2.5352 0.0250 3.4653 0.4000 1.2101 -4.5249 -0.8418 1.3860 1.2621 -4.0433 0.2935 4.6545 -0.1931
3.9858 -1.3350 -1.4762 -2.0753 2.8632 -3.5847 2.7013 -5.1501 -3.8851 -1.6080 2.2305 8.3979 -0.0256 -9.6383 -1.3443 4.4507 2.2623 -1.1444 -4.6652 3.5771 -0.5035 -2.3049 5.6103 3.8853 -1.6588 0.7154 6.6934 2.1400 -9.1186 -1.8433 0.4498 1.7663 4.4769 -1.6355 -4.6328 -1.7693 -0.9565 3.9114 6.0552 -2.1676 3.0302 6.2629 0.5489 -7.3709 -1.3643 0.1994 -6.7910 -2.7148 0.9271 2.5372 -2.6091 1.9069 -2.1833 -3.7373 -0.6076 2.7642 2.6440 1.0603 0.1138 -3.2117 -0.1472 3.2669 -0.4612 3.2945 1.6962 -0.7922 -3.6354 4.1331 -1.1439 -1.6599 4.3474 1.1838 -0.0873 -3.0858 -2.5716 -0.4957 4.0093 4.6210 -1.7785 1.8590 7.1068 1.0012 -8.7814 -1.5578 2.8334 -0.5741 -1.9985 -1.5318 3.0424 -2.2231 1.4726 -4.6622 -3.2384 -0.1736 2.6829 3.9633 -1.3836 4.6818 3.6183 -0.5677 -4.3441 -2.2881 1.9327 -0.9439 -2.9298 -0.2661 2.8662 -1.7954 1.4826 1.1770 -2.3996 1.0757 -3.2640 -3.1215 -1.3006 3.9205 2.3960 -1.4253 3.7113 -0.0795 0.4329 -5.3336 -2.7441 2.5595 0.8230 -1.6609 -2.2975 3.6102 -1.1112
3.0839 -0.7835 -5.0084 1.0081 5.0450 -2.5351 -0.4842 -5.0621 -2.5805 -3.3566 2.9838 7.6228 2.0649 -9.0140 0.4231 2.1125 2.7518 -5.7792 0.4053 6.5539 0.8081 -0.6389 2.7557 4.8623 -3.5882 0.8015 8.2448 1.2628 -8.6248 -1.6768 -4.6835 1.7499 2.4784 3.3828 -3.6476 -0.0068 -3.2947 1.1527 5.0564 -4.3454 1.5328 6.0745 2.4898 -6.9110 -0.5065 1.4238 -5.9067 -0.1327 -0.4573 2.2616 -3.0167 0.7343 -2.5114 -3.7694 -2.5149 2.3623 1.8566 -0.0873 -0.2055 -3.1922 -0.3939 2.2913 -0.5047 2.2516 2.2544 -4.5492 1.1100 5.4378 0.6118 -0.1967 2.9806 1.8776 2.3090 -2.7305 -1.8586 -3.0175 2.3366 4.1555 -3.7165 1.6943 7.4208 1.8567 -8.2526 -0.6764 1.8786 -0.3124 -4.2961 0.5401 4.0679 -1.5317 0.6920 -4.3803 -2.0174 -3.5390 2.0797 2.7541 -1.5547 2.5685 3.9109 2.5123 -3.6581 -0.8644 0.8852 -1.0407 -3.7506 -0.0553 2.8750 -1.7296 0.3718 1.1005 -3.4215 1.2706 -3.1422 -2.5224 -1.3376 2.6552 2.4910 0.0066 3.2131 0.4772 1.4909 -4.7186 -1.0068 1.5389 1.0943 -4.1042 0.5796 4.3018 -0.0880
0.8201 -1.0948 -5.3931 0.0215 3.8482 -3.0197 1.0244 -4.5362 -4.2743 -4.7605 1.0346 5.6372 2.5299 -9.1347 -0.5892 1.9363 2.0761 -5.6616 -2.7298 5.2435 -1.2224 -1.2937 5.5068 4.6595 -5.1419 2.3415 7.4693 3.1596 -9.3466 -2.7720 -1.4032 0.7064 4.6397 1.6345 -5.0091 0.5191 -2.3548 3.0622 6.2715 -3.7400 3.1358 5.6693 1.6203 -7.6112 -2.1112 2.4383 -6.3458 -2.0226 2.0701 1.8949 -1.4863 -0.4238 -2.2547 -2.7187 -0.9244 2.3537 3.0455 0.7695 -0.2333 -1.7985 0.9127 2.9684 0.4597 2.4149 1.5468 -4.5337 -1.5017 5.4426 -0.7398 -0.4440 4.4289 1.9466 0.4733 -3.4500 -0.7648 -1.2309 3.0574 5.2600 -4.6143 2.1559 6.3823 2.5283 -8.7768 -1.8952 0.9547 -0.5647 -4.0229 0.2017 3.6466 -1.5668 0.9988 -4.4115 -2.8095 -1.2403 1.8727 4.3144 -1.0865 4.2295 4.3359 1.2517 -4.5640 -0.5529 0.4415 -1.0599 -2.8800 1.0477 2.8162 -0.9244 1.5166 0.8189 -2.3499 0.3498 -3.3461 -2.0532 -0.8248 3.7212 3.0126 -0.0904 3.9380 0.6442 1.5730 -5.1607 -1.8684 1.6644 0.6676 -3.6859 -0.5487 4.3852 -0.5496
2.1899 -1.0264 -5.3046 1.2327 5.1779 -2.7396 0.7546 -5.3484 -3.6158 -4.7796 0.8501 7.8394 2.6093 -8.1498 1.5062 1.4149 2.2896 -6.3515 1.1239 6.6618 1.1557 -0.1979 3.1215 4.8637 -5.1621 -0.0773 5.7895 1.8742 -9.2653 -0.3439 -4.2619 1.8294 2.7418 2.8323 -3.6383 0.4212 -3.0366 2.1701 5.4208 -3.0302 0.9367 6.2952 1.4512 -6.9027 -0.0982 2.4404 -6.2245 -1.0196 -0.5487 2.5471 -2.9826 0.1346 -2.3578 -3.2629 -2.2817 2.8401 2.0174 -0.2645 0.0640 -2.7647 -0.4496 2.7846 -0.4854 1.7049 2.1122 -5.0610 1.6007 5.7003 0.3632 0.0119 3.5154 1.8418 1.5727 -2.6094 -1.2505 -2.2758 1.8709 4.1515 -4.4367 0.5168 6.5723 1.9946 -8.2357 0.3023 1.3114 -0.3638 -4.3198 0.6591 4.3548 -1.6566 1.2586 -4.5335 -2.4988 -3.1083 2.1888 2.9263 -1.0351 2.6844 3.9204 2.1942 -3.6652 -0.6200 0.4708 -0.9261 -3.4290 -0.0774 3.2312 -1.7559 0.1669 1.2852 -3.3076 1.0341 -3.1022 -2.3246 -1.0514 3.1252 2.5489 0.1044 3.7040 0.4225 1.9514 -4.8878 -1.4167 1.1063 1.0844 -4.2597 0.7975 4.6677 -0.2313
2.2723 -1.3299 -4.9977 1.1141 4.9888 -2.9568 2.3641 -4.6737 -3.3242 -5.0434 0.2108 5.7402 1.8416 -8.2332 -2.0856 1.7407 1.8872 -6.1847 1.1428 6.6518 0.9803 -0.1520 3.4375 4.8030 -4.8406 1.0569 7.8490 3.4891 -8.8833 -0.6463 -4.2054 1.8799 2.8279 0.9477 -4.0864 1.2809 -2.9574 2.4036 5.4720 -2.9784 1.1555 6.3260 2.0248 -7.0529 -0.0746 2.8031 -5.7834 -0.3406 -0.6090 2.3117 -2.9713 0.0611 -2.6064 -3.1150 -2.2785 2.9249 2.0126 -0.3625 -0.1672 -2.6812 -0.4802 2.7410 -0.4995 1.8032 1.8194 -4.8535 1.5354 5.7506 0.0786 -0.0113 3.6607 1.7581 0.3086 -3.0401 -0.7018 -2.2049 2.0927 4.2005 -4.3780 0.8370 6.7398 2.5597 -8.1474 -0.9403 1.3292 -0.6382 -4.0960 0.5781 4.2376 -1.8043 1.7395 -4.2520 -2.0607 -3.0671 2.3004 2.9732 -1.0056 2.9433 3.9040 1.0220 -3.9281 0.0723 0.4161 -1.1761 -3.2635 -0.1337 3.0939 -1.8060 0.1215 1.0397 -3.2140 0.7115 -3.2283 -1.9213 -1.0543 3.2932 2.5069 0.0641 3.7407 0.3270 1.9093 -4.7078 -0.8194 1.1315 0.8120 -4.0846 0.7314 4.6633 -0.4094
2.4878 -1.1329 -5.0616 1.7121 4.9925 -2.4627 0.0423 -5.4326 -3.3093 -2.9280 -0.1822 6.5156 3.0575 -8.4187 0.9867 2.0043 2.2488 -6.1154 1.2743 6.4359 1.4288 -0.9333 3.0736 4.8460 -3.7595 1.4134 7.9196 2.7284 -9.2966 -1.0937 -4.8023 2.3505 2.1767 2.2338 -3.7892 0.6944 -3.8965 2.5170 5.0047 -4.5173 1.2889 5.6319 2.7854 -6.9068 -0.7806 1.3896 -6.3734 -0.5537 -0.2851 2.5618 -2.9846 0.1323 -2.3695 -3.3189 -2.6222 3.0749 1.7438 -0.1786 0.0617 -2.7970 -0.4860 2.7726 -0.4934 2.1569 2.0230 -4.8089 1.7389 5.4392 0.6734 -0.2554 3.4274 1.8876 1.3377 -2.6986 -1.1624 -3.0354 2.1016 3.8358 -3.7081 0.8822 6.8209 2.8357 -8.3358 -0.3469 1.5427 -0.4346 -4.1672 0.9197 4.2276 -1.4798 0.6850 -4.6325 -2.2544 -3.6449 2.5415 2.5198 -1.6712 2.7280 3.7884 1.6807 -3.7903 -0.3950 0.5707 -0.9592 -3.3953 0.0888 3.1895 -1.6962 0.3845 1.2629 -3.2578 0.7633 -3.1757 -2.2253 -1.4459 3.1783 2.4385 0.0419 3.6182 0.4973 1.2503 -5.0121 -1.1092 1.4153 1.0215 -4.0993 0.9098 4.5085 -0.0414
0.6841 -1.0333 -5.3766 -0.0473 3.7048 -3.0005 0.7724 -4.5808 -4.2392 -4.7659 1.0131 5.6890 2.5885 -9.1073 -0.6409 1.9645 2.0046 -5.7172 -2.7783 4.9512 -1.3051 -1.2348 5.4951 4.6730 -5.2797 2.4971 7.3476 3.1609 -9.2421 -2.8457 -1.3206 0.6857 4.6661 1.8067 -4.8630 0.4964 -2.3930 3.0366 6.2383 -3.7506 3.1160 5.5803 1.5994 -7.5654 -2.0905 2.4056 -6.2868 -2.0520 2.1385 1.8929 -1.4848 -0.4681 -2.1986 -2.6630 -0.8139 2.3303 3.0822 0.8188 -0.2264 -1.7737 1.0159 2.9928 0.4699 2.4041 1.5585 -4.5385 -1.6191 5.2419 -0.7118 -0.3843 4.4058 1.9645 0.5246 -3.3620 -0.7393 -1.2262 3.0446 5.2755 -4.6773 2.2068 6.3239 2.5430 -8.7130 -1.9352 0.8980 -0.5280 -4.0068 0.2063 3.5762 -1.5497 0.8706 -4.4017 -2.7821 -1.1697 1.8532 4.3405 -1.0623 4.2119 4.3481 1.3256 -4.4657 -0.5513 0.4205 -1.0268 -2.8499 1.1169 2.8098 -0.9130 1.5707 0.8140 -2.3384 0.2994 -3.3039 -2.0167 -0.7441 3.6984 3.0395 -0.0319 3.9099 0.6619 1.5331 -5.1121 -1.8676 1.6606 0.6788 -3.6815 -0.5617 4.2869 -0.5255
3.9737 -1.4348 -1.7647 -2.0238 2.8271 -3.4442 2.7672 -4.9227 -4.3956 -1.6805 4.1495 9.1735 2.0333 -9.4757 -2.4879 4.4189 2.3361 -1.1714 -4.5210 2.8213 -0.6637 -2.3447 5.0287 4.1189 -3.2900 4.2764 7.5611 -0.1040 -9.5422 -1.6939 0.1250 0.9420 4.4916 -1.3445 -4.7290 -1.8240 -0.7678 3.3387 6.0717 -1.4222 2.7643 7.3079 1.0650 -7.4355 -1.8707 0.4686 -6.7502 -3.0780 1.0525 2.6291 -2.5882 1.8297 -2.0271 -4.0656 -0.4757 2.3494 2.7226 1.1159 0.2644 -3.3822 0.0182 3.2350 -0.3884 3.3944 1.5524 -0.8296 -3.5815 3.7518 -0.8344 -1.5187 4.0511 1.3850 0.0212 -3.0733 -2.7318 -1.4341 2.7861 4.8299 -2.2419 3.8158 7.9860 0.8961 -8.9159 -2.0097 2.8628 -0.5827 -2.2346 -1.4230 3.0040 -2.1061 1.6023 -4.5360 -3.5837 -0.4714 1.9109 4.0444 -1.7885 3.8501 3.8295 -0.3519 -4.3656 -2.4370 1.9444 -0.8448 -3.1851 -0.1311 2.8950 -1.7375 1.5826 1.2451 -2.4966 1.1326 -3.1686 -3.3964 -1.2345 3.4758 2.5543 -1.2688 3.5597 0.0650 0.6509 -5.2837 -3.0236 2.6411 0.7919 -1.7857 -2.1768 3.4362 -0.9313
-0.3653 -1.1017 -4.6877 0.5717 4.5806 -3.1187 -0.3629 -4.8437 -2.9958 -3.1850 0.3668 6.8466 1.3413 -9.4751 -1.9733 0.3889 2.2282 -5.5004 -2.0622 5.7669 -1.5008 -0.9501 4.6806 4.6943 -5.2999 1.2246 6.9234 3.3483 -9.2190 -0.9174 -2.9488 0.7002 2.8931 3.6122 -4.4464 -0.2342 -3.4332 2.8299 4.9081 -3.4260 2.6512 6.4092 1.7472 -7.4145 -0.9443 2.2515 -6.4413 -1.9845 2.3455 2.2112 -1.9511 -0.2127 -2.0537 -1.6474 -1.4798 2.3238 2.0740 1.1572 0.0464 -1.5210 1.3388 3.0912 0.1746 1.3475 1.5888 -4.8279 -1.0475 5.7476 -0.6340 -0.0618 4.2470 1.8496 1.8657 -2.9770 -0.6898 -2.0804 2.4518 4.3471 -4.0992 1.3615 6.7449 2.2641 -8.7783 -1.2675 0.3360 -0.4611 -3.5584 0.7239 4.1586 -1.7133 0.7247 -4.4137 -2.1034 -2.2637 1.7023 3.0397 -1.2718 3.6430 3.9188 2.5600 -4.1605 -0.7805 0.4055 -0.8616 -2.2745 1.4999 3.1789 -1.2112 1.5619 1.0388 -2.4260 0.8296 -3.1106 -1.4607 -0.8811 3.4595 2.5485 0.3648 4.0490 0.4984 1.8041 -5.0682 -1.6727 1.0939 0.7850 -3.6688 -0.0529 4.7131 -0.6050
3.3720 -0.8569 -3.7109 -0.5805 4.7173 -3.0752 3.5121 -4.5460 -2.5380 -5.0388 2.6681 5.8968 2.1194 -9.9678 -2.7482 1.0441 1.3729 -5.7244 -1.1188 6.9916 0.0109 0.5477 4.1888 4.8036 -4.3124 3.4098 7.9282 3.7922 -8.5059 -2.2306 -2.8798 0.8800 4.1096 -1.1675 -5.5938 -1.7879 -1.8172 2.7851 6.2352 -2.9604 3.7355 5.9543 1.4872 -7.8970 -1.8669 1.2857 -6.8405 -2.9290 -0.8854 1.6108 -2.4518 2.0492 -2.1914 -1.1345 -1.6789 2.3306 2.7277 0.3868 -0.3658 -1.5871 -0.5740 2.4982 -0.1239 1.4725 1.5873 -4.4795 -0.1376 6.1278 -0.2580 -0.1009 3.9107 1.8586 0.1045 -3.6965 -1.3319 -1.0975 2.2868 5.0016 -4.1516 3.2665 6.7262 2.6060 -8.7885 -2.2957 2.1237 -0.4790 -3.0196 -0.5613 4.0407 -1.7638 2.0862 -4.5525 -2.1757 -2.0272 1.7387 3.9345 -0.2999 3.3157 4.2551 -0.1180 -4.9718 -1.7981 1.5543 -1.0507 -1.9400 -0.6827 2.7263 -1.4982 0.2665 0.6749 -2.5201 1.3604 -3.4518 -1.5544 -0.6769 3.2537 2.8679 -0.3741 3.7597 0.4586 1.1603 -5.4994 -2.3243 1.2795 0.6478 -3.4151 -0.3689 4.7299 -0.4859
3.0305 -0.6470 -4.5980 -0.2227 4.7546 -2.8027 3.4094 -4.6674 -0.5493 -4.3840 3.6694 8.0793 3.2023 -9.6478 -1.6391 0.2793 1.5169 -5.9726 -0.6276 6.9305 0.2762 0.4163 3.9130 5.1081 -5.2467 3.1313 6.0367 1.2579 -9.9130 -2.8041 -3.4240 1.2338 4.1110 -0.5307 -5.5238 -3.2497 -2.0551 2.6543 6.3985 -2.9570 3.8580 6.2308 2.2654 -7.7316 -2.5964 1.4349 -7.0025 -1.5653 -0.8781 1.6641 -2.3281 2.3900 -2.0634 -1.8189 -1.8967 2.4652 2.8413 0.6233 -0.2799 -1.8142 -0.4964 2.4063 0.0374 0.9443 1.7475 -4.8393 0.2892 5.9802 0.0826 0.0279 3.6827 2.0993 0.6578 -3.5741 -2.7833 -1.4124 2.1741 5.1159 -4.3171 3.5026 6.7369 2.1503 -9.2027 -2.3668 1.9739 -0.3194 -3.6204 -0.2820 4.0108 -1.5288 2.2330 -4.5956 -1.4304 -2.4063 1.9018 4.0042 -0.4163 3.0912 4.4651 0.3858 -4.9217 -2.7139 1.6907 -0.9238 -2.4502 -0.5435 2.7049 -1.3273 0.2612 0.7736 -2.6683 1.7117 -3.3816 -2.0486 -0.7361 3.1601 3.0612 -0.1918 3.6164 0.6831 1.4123 -5.5553 -1.8583 1.0332 0.7881 -3.7778 -0.0561 4.6192 -0.2160
1.9860 -0.8386 -5.7741 1.5408 4.8600 -2.5733 -0.8422 -4.2575 -1.4402 -5.1860 0.9109 7.7253 3.4252 -8.1596 0.6532 0.8897 2.4494 -6.5027 1.8091 5.9694 1.6336 -0.2108 2.7889 4.9820 -5.4878 0.2831 5.5520 1.2233 -8.7315 0.8326 -4.3784 2.1960 2.7731 4.0054 -4.2195 -1.2114 -3.1509 2.2552 5.4695 -3.3218 1.0211 6.3253 1.9076 -6.9955 -0.6943 1.6782 -5.6629 -0.0163 -0.5370 2.4470 -2.8657 0.3392 -2.3974 -3.5837 -2.2536 2.9049 2.1027 -0.1104 -0.0326 -2.8379 -0.4017 2.6238 -0.3711 1.3799 2.2446 -5.2783 1.9840 5.2732 0.5100 0.1171 3.2364 1.9711 2.4868 -3.0355 -2.5281 -2.4301 1.8721 4.1988 -4.7762 0.7036 6.4511 2.1107 -8.0457 0.3483 1.2390 -0.2797 -4.6291 0.8774 4.0814 -1.5084 0.5978 -3.9987 -1.5976 -3.1848 2.3596 2.9793 -1.0721 2.4858 4.0080 2.8694 -3.9431 -1.5644 0.5676 -0.9382 -3.6643 0.0204 3.0495 -1.6319 0.1804 1.2412 -3.3582 1.1890 -3.0719 -2.5546 -1.0010 2.9752 2.6540 0.2481 3.4566 0.5579 1.6490 -4.5764 -1.0171 0.9733 1.1464 -4.4503 1.0501 4.3493 -0.0747
3.5547 -0.6548 -4.1495 -0.3367 4.3726 -2.9150 3.8276 -4.0932 -3.4927 -4.4913 4.0650 8.3283 1.7327 -9.4602 -4.4157 0.7166 1.1505 -5.8632 -1.0882 6.6781 -0.1071 -0.3084 3.9184 5.0595 -2.6022 5.2463 7.8323 0.5144 -9.3814 -2.4877 -4.1390 1.3553 3.8793 0.5866 -6.0897 -0.4830 -2.7552 2.5139 6.2634 -3.5826 3.7776 6.1925 1.2499 -7.3424 -3.5480 2.4156 -6.8699 -2.7107 -0.7770 1.2599 -2.3317 2.8301 -2.0430 -1.3840 -2.4646 2.4558 2.6700 0.8484 -0.5188 -1.6336 -0.6549 2.1402 0.0149 1.2399 1.4671 -4.6775 -0.1229 5.7580 -0.0706 -0.4267 3.5526 2.0381 1.3740 -3.9079 -0.7150 -2.0977 2.1361 4.9584 -3.4784 4.4552 7.5186 1.1184 -8.8229 -3.3907 2.3609 -0.4512 -3.3057 -0.4320 3.6809 -1.6144 2.7779 -4.3693 -2.4995 -3.0693 1.9416 3.8127 -1.0683 3.0593 4.3763 1.2707 -5.2424 -1.0365 2.0360 -1.0534 -2.1450 -0.6039 2.3688 -1.3637 0.4574 0.4658 -2.5537 2.2532 -3.4139 -1.5324 -1.2892 3.1022 2.9523 -0.5124 3.4022 0.6151 2.1782 -5.5146 -2.1734 1.3238 0.5387 -3.5886 -0.3662 4.3668 -0.3233
4.4189 -0.5389 -1.3364 -2.8351 1.6697 -2.9778 -0.5483 -4.1798 -1.0080 -1.6393 1.2176 6.9862 -1.2255 -8.5008 -1.6678 4.0680 2.2395 -3.7031 -4.7382 2.3406 0.1715 -1.6867 6.0329 3.6669 -2.4620 2.9251 8.2590 -0.3772 -9.5041 -3.5326 0.4984 1.8156 4.3183 3.0545 -5.3926 -4.0334 -0.8338 4.0578 5.8383 -2.1018 3.2344 5.8964 0.7580 -7.6166 -2.5417 0.3319 -6.3441 -3.2366 0.3010 2.0175 -2.8090 1.8311 -2.2550 -0.7107 -0.5643 2.8609 2.5207 0.7571 -0.2350 -1.7703 -0.3775 3.2871 -0.7390 3.3615 2.2029 -2.5723 -4.0302 3.2501 -0.4999 -1.6349 4.4259 1.0667 2.8074 -3.6596 -2.4951 -0.2198 4.1412 4.4562 -2.0962 2.4774 7.1829 -0.3271 -8.6379 -2.6726 3.0104 -0.2028 -1.6186 -2.0508 2.3700 -1.9404 0.6881 -4.2818 -1.7973 -0.0471 2.7817 3.8073 -1.0098 4.9062 3.4307 2.4195 -4.7874 -3.1812 1.9061 -0.9367 -1.3846 -0.7157 2.5147 -1.8525 1.2246 1.0008 -2.2476 1.8157 -3.3637 -1.7117 -1.1369 4.0785 2.2577 -1.5979 3.6119 -0.1191 1.0701 -5.1755 -2.7108 2.5729 1.0698 -2.1825 -2.6388 3.0826 -0.8064
3.8455 -0.9512 -1.3352 -2.2643 0.8418 -2.4516 3.1480 -4.9857 -4.0263 -3.7218 3.9977 7.0470 0.7179 -9.7212 -3.1734 4.0351 2.4452 -0.8388 -3.9200 0.8620 0.4202 -1.7567 5.9809 3.6674 -2.3029 2.7532 8.3313 -1.0514 -8.9169 -1.9771 0.8573 2.0014 4.3580 -0.4864 -4.6340 -0.8210 -0.7780 4.0512 5.8862 -1.8917 3.0272 5.9679 0.4021 -7.4038 -3.1692 1.2300 -6.7280 -2.0959 0.4570 2.4739 -2.9487 2.1534 -2.0976 -3.8314 -0.3897 2.8725 2.5867 1.1228 0.1539 -3.5878 -0.3891 3.6286 -0.8916 2.7762 2.0071 -0.9035 -3.5804 2.1213 0.1323 -1.6259 4.3093 1.1296 0.6003 -3.0576 -2.1439 -0.1707 4.2066 4.5091 -2.6259 3.2310 7.2544 -0.0682 -8.7356 -2.6787 2.7836 -0.3005 -2.1299 -1.6990 1.9635 -1.6741 2.0674 -4.5617 -3.1238 0.1668 2.8770 3.8578 -1.0549 4.8606 3.4857 0.3514 -4.3173 -1.6539 2.0629 -0.7862 -3.1605 -0.5551 2.6479 -1.8790 1.3100 1.2695 -2.7607 1.5808 -3.1940 -2.9866 -1.1017 4.0139 2.3222 -1.4989 3.4927 -0.0429 1.2704 -5.2666 -2.3222 2.3192 1.0630 -1.8818 -2.3255 2.5049 -0.4663
3.9373 -1.0650 -1.1576 -2.9295 2.4766 -2.9048 2.0614 -5.5039 -0.6112 -3.1323 5.1596 7.3072 0.6925 -9.6389 -2.0066 4.0172 2.0777 -3.1883 -4.7001 3.3457 0.2532 -0.8756 5.8707 4.0598 -2.3464 3.4778 8.6367 0.6651 -9.9640 -4.2643 -0.0468 1.1720 4.4944 0.7623 -4.8148 -5.2357 -0.5332 3.6300 6.1433 -2.0244 3.3960 6.2493 0.3451 -7.7548 -3.3479 1.6615 -7.0140 -3.4280 0.2064 2.0146 -2.6976 1.1321 -2.5999 -1.0606 -0.7564 2.5662 2.7561 0.3814 -0.3655 -1.9066 -0.2032 3.2276 -0.5239 3.2423 1.9017 -2.1171 -3.7490 4.1001 -0.2995 -1.1993 4.4689 1.3723 0.8679 -3.3754 -3.4057 -0.0099 3.5949 4.7248 -2.4947 3.9870 7.5363 0.5998 -9.2260 -3.2929 2.5974 -0.5643 -1.5254 -2.0173 2.8635 -1.8097 1.6418 -4.9711 -1.9176 -0.2834 2.2765 4.0299 -0.5689 4.6058 3.7647 1.0013 -4.5785 -4.0617 1.4178 -1.2162 -1.5021 -0.6887 2.6611 -1.7074 0.9935 0.8685 -2.1765 1.2275 -3.5959 -2.1770 -0.9264 3.9113 2.5537 -1.3224 3.7814 0.1201 1.4699 -5.5882 -3.0866 2.3295 0.8040 -1.9729 -2.4429 3.5972 -0.6166
-0.7390 -1.5952 -4.2460 0.1437 4.5190 -2.9381 -0.5893 -5.3331 -1.8948 -5.5222 1.9116 4.8205 1.7558 -9.2214 -3.5227 -0.4705 1.8853 -5.1422 -2.1429 5.8921 -0.7574 -0.3804 4.7049 5.0053 -5.4169 3.0016 6.8232 3.8392 -9.1956 -2.5954 -2.4986 0.6814 3.4839 3.9993 -4.6123 -0.4860 -2.5352 2.6359 5.7717 -3.7131 3.3530 5.1535 2.5774 -7.1514 -2.8149 2.2191 -6.8302 -1.3817 1.9938 2.0700 -2.0256 -0.1100 -2.3684 -1.2046 -1.1651 2.3226 2.4838 1.0708 -0.1630 -1.3545 1.2940 2.9614 0.2107 0.6168 1.2616 -4.6849 -0.9068 5.8467 -0.2579 0.2513 4.2124 2.0761 2.1897 -3.1645 -0.7451 -1.3902 2.3977 4.8153 -4.9597 2.7554 5.7171 2.8177 -8.6200 -2.9374 0.0382 -0.8415 -3.2411 0.4665 4.0616 -1.5727 0.7074 -4.7908 -1.4611 -1.7995 1.6822 3.5420 -0.6526 3.6011 4.3069 2.8365 -4.3793 -0.7818 0.3212 -1.1746 -1.9666 1.2462 3.0343 -1.1857 1.2252 0.8344 -2.3278 0.9765 -3.3950 -1.1474 -0.4877 3.4457 2.8837 0.4602 3.9937 0.6730 1.8734 -5.4009 -1.2459 0.6210 0.4794 -3.4844 -0.0612 4.6923 -0.3631
-0.5609 -1.1100 -4.6235 0.3869 4.5485 -2.5335 -0.6301 -5.2470 -2.9495 -5.8806 3.3925 6.5356 2.3798 -10.1041 -2.4069 -0.1863 2.1598 -5.2201 -1.9147 5.8685 -0.5255 -0.3120 3.6619 5.4389 -4.2822 5.0075 6.7679 4.0192 -8.8352 -1.4532 -3.2228 0.7376 2.9687 4.0030 -4.8923 -1.5590 -3.1881 2.2663 5.5520 -4.0936 3.3536 5.0237 1.8212 -7.9063 -1.8184 2.1573 -6.8486 -2.8446 2.1696 2.0325 -1.7029 -0.0467 -2.4381 -1.7656 -1.5085 2.2216 2.4043 1.1579 -0.2542 -1.4642 1.3829 2.7842 0.5577 0.8628 1.7569 -4.5011 -0.8036 5.6959 0.1912 0.2155 3.8743 2.4464 2.2269 -3.3810 -1.4940 -1.9945 1.9657 4.6794 -4.7290 4.0220 6.2001 2.8765 -8.9656 -1.8671 0.1923 -0.5639 -3.4779 0.6444 4.0095 -1.1836 0.6780 -4.8225 -2.4284 -2.3664 1.5556 3.2692 -1.0081 3.0728 4.4631 2.8367 -4.5859 -1.7615 0.4268 -1.1298 -2.2777 1.3954 2.9487 -0.8310 1.3609 0.9003 -2.2377 0.9989 -3.5040 -1.8966 -0.6948 3.1113 3.0577 0.5381 3.7951 1.0482 1.8317 -5.4893 -2.3614 0.7954 0.7710 -3.4598 0.0645 4.5644 0.0404
-0.6314 -1.2449 -5.0841 1.3083 4.2063 -2.6230 0.6340 -4.5718 -3.9164 -5.5919 3.1025 6.6762 4.8016 -7.6096 -2.5118 0.5797 2.0806 -5.2615 -1.0157 6.0977 -0.5983 -0.3774 4.2754 5.1674 -5.7078 2.2035 4.5814 4.6478 -5.4289 -3.1680 -2.9503 0.6097 3.5137 0.8675 -5.5614 0.8301 -2.7344 2.4622 5.8638 -3.7457 3.4199 5.2726 3.3667 -6.2243 -1.2877 1.9701 -6.5494 -1.7697 2.0963 1.2582 -1.6215 -1.0815 -2.5588 -2.2443 -1.3483 2.0425 2.5914 0.5071 -0.6936 -1.6076 1.1761 2.2237 0.4928 1.3500 1.2020 -4.6176 0.1419 5.6877 -0.0763 0.3415 3.7133 2.2762 -0.2524 -3.9097 -0.3712 -1.6147 2.0889 4.9193 -5.1068 2.8287 5.4421 4.3206 -6.3463 -2.4307 -0.0475 -0.8417 -3.7897 1.1289 3.5992 -1.2898 0.5078 -4.5945 -2.4511 -2.1002 1.4814 3.6176 -0.7013 3.1898 4.4610 0.5685 -5.0031 -0.2126 -0.2188 -1.4006 -2.5762 1.4489 2.3592 -0.8706 1.1421 0.3481 -2.3051 -0.2753 -3.6660 -1.6456 -0.5272 3.0449 3.0377 0.6430 3.4577 0.8987 1.0574 -5.4093 -1.5497 0.8395 0.3067 -3.6218 0.5831 4.3236 -0.1399
1.2647 -1.5104 -5.5462 2.4186 4.0392 -2.2213 1.4856 -4.4945 -4.0709 -5.6693 2.1448 7.6770 4.4286 -7.5646 0.1136 1.2752 1.9502 -6.2349 2.8050 4.9633 2.0327 -0.2355 2.5002 5.2034 -6.0381 1.6628 5.4769 5.0915 -6.5396 -1.8149 -4.2767 3.1887 2.7959 0.0462 -4.9554 0.5392 -3.2225 2.8559 5.5431 -3.7906 1.7184 6.3601 3.1912 -5.7085 -0.5856 1.9898 -6.1656 -1.3805 -0.2589 2.3513 -2.6577 -0.8449 -2.5314 -3.4090 -2.0064 3.2545 2.2407 -0.5954 -0.1410 -2.6588 -0.1987 2.4563 -0.1554 1.6149 1.5977 -4.9934 2.8104 4.2915 0.8812 0.3603 2.8741 2.2208 -0.5998 -3.5007 -1.1641 -2.5829 2.2900 4.2973 -5.2782 1.8431 6.4160 4.3322 -6.6309 -0.8625 0.6766 -0.7684 -4.4130 1.5057 3.4810 -1.2035 0.8668 -4.3481 -2.7446 -3.0993 2.9931 3.0592 -1.0969 2.4803 4.1836 0.1345 -4.5184 -0.5978 -0.1939 -1.2029 -3.4807 0.3910 2.7479 -1.3868 0.0846 0.9894 -3.1447 -0.1884 -3.4072 -2.3917 -0.8172 2.9466 2.8482 0.6195 3.0565 0.8195 1.0694 -5.0361 -1.6213 0.8532 0.6685 -4.2104 1.6779 3.6787 0.2414
1.2647 -1.5104 -5.5463 2.4186 4.0392 -2.2213 1.4856 -4.4945 -4.0709 -5.6694 2.1448 7.6770 4.4286 -7.5645 0.1137 1.2752 1.9502 -6.2349 2.8050 4.9633 2.0326 -0.2355 2.5002 5.2034 -6.0381 1.6627 5.4769 5.0916 -6.5396 -1.8149 -4.2767 3.1887 2.7959 0.0462 -4.9554 0.5392 -3.2224 2.8559 5.5430 -3.7906 1.7184 6.3602 3.1912 -5.7085 -0.5857 1.9899 -6.1656 -1.3805 -0.2589 2.3513 -2.6577 -0.8449 -2.5314 -3.4090 -2.0064 3.2544 2.2407 -0.5953 -0.1410 -2.6588 -0.1987 2.4563 -0.1554 1.6148 1.5977 -4.9934 2.8104 4.2915 0.8812 0.3603 2.8741 2.2208 -0.5998 -3.5008 -1.1641 -2.5829 2.2900 4.2973 -5.2782 1.8430 6.4160 4.3322 -6.6310 -0.8625 0.6766 -0.7684 -4.4130 1.5057 3.4810 -1.2035 0.8667 -4.3481 -2.7447 -3.0992 2.9931 3.0592 -1.0969 2.4803 4.1835 0.1345 -4.5184 -0.5977 -0.1939 -1.2029 -3.4806 0.3911 2.7479 -1.3868 0.0846 0.9893 -3.1447 -0.1884 -3.4071 -2.3916 -0.8172 2.9466 2.8482 0.6196 3.0565 0.8195 1.0695 -5.0362 -1.6213 0.8531 0.6685 -4.2104 1.6779 3.6787 0.2414
-1.0825 -2.1517 -3.7473 2.6963 4.6975 -1.9838 2.2735 -5.1058 -4.1673 -4.0591 1.2995 7.0102 3.1193 -9.3343 -0.8321 -2.5151 0.9636 -1.8315 2.1268 6.2758 1.2200 -0.8055 1.8931 4.6454 -4.7548 3.3777 7.6557 3.8936 -7.9926 -2.5051 -4.5339 2.9558 1.8487 1.1758 -4.1193 0.4615 -3.6986 3.3982 4.6764 -4.8728 2.7234 5.3431 2.7374 -7.0380 -0.6176 1.5306 -6.4775 -1.3380 0.5829 2.5710 -2.9618 2.1415 -2.0807 -3.7015 -2.2114 3.0400 1.6084 1.6360 0.3306 -3.3377 0.1048 2.5426 -0.4769 -1.9756 0.8197 -3.0433 2.3043 4.9558 1.1603 0.1469 2.9569 1.9739 1.6870 -2.7571 -1.3582 -3.0591 2.4267 3.7109 -4.5595 2.5385 6.7879 3.3122 -8.1419 -1.4413 -0.1776 -0.9997 -3.5677 1.7261 3.9430 -1.1693 2.0165 -4.4979 -2.8512 -3.3998 2.8437 2.2939 -1.5576 2.5111 3.7315 1.4905 -3.9529 -0.7050 1.1718 -0.9678 -3.5716 0.8364 3.0167 -1.5729 0.4817 1.1036 -3.1484 1.9531 -3.0658 -2.5916 -1.1143 2.8470 2.3989 0.5908 3.2418 0.6393 1.7166 -5.0492 -1.6750 -0.6366 0.3490 -3.2444 1.5613 4.1096 0.2740
-1.3472 -2.0974 -3.8032 2.2991 5.0062 -2.4267 0.8261 -4.9831 -3.8143 -5.7555 0.8972 5.1512 1.2828 -8.9724 -0.3983 -3.1314 0.6809 -2.2681 1.7491 6.4755 1.5377 -0.4445 3.3660 4.8875 -5.6210 1.7005 7.2834 3.4199 -8.6697 0.3430 -4.2982 2.5121 2.2738 4.3484 -4.1671 -0.5793 -3.3711 2.7131 5.0857 -3.6336 1.4965 5.9431 2.1029 -6.7833 -0.3860 2.7542 -6.4318 -1.7029 0.3672 2.5671 -2.9544 1.8201 -2.0530 -3.9513 -2.1081 3.1759 1.7893 1.3998 0.2835 -3.1379 0.0707 2.8210 -0.4534 -2.1940 0.9017 -3.1907 2.2211 5.5718 0.6774 0.2602 3.5330 1.9160 3.2057 -2.7556 -2.0412 -2.5137 2.2918 3.9183 -5.0962 1.4002 6.2219 2.3735 -8.2255 -0.1042 -0.4286 -1.0090 -3.4113 1.4859 4.2625 -1.4436 1.8195 -4.4023 -2.8971 -3.1332 2.6927 2.5956 -1.1520 2.9186 3.8469 3.4989 -3.9547 -1.4305 0.9192 -1.0016 -3.4259 0.6766 3.2053 -1.6528 0.2590 1.0838 -2.9591 2.2623 -3.0132 -2.8948 -0.9286 3.2997 2.4753 0.5613 3.7050 0.5249 2.6186 -4.9939 -2.0090 -0.8701 0.3547 -3.1166 1.4252 4.5972 -0.0183
3.0389 -2.0267 -0.2074 -2.2524 2.5272 -3.1483 0.0192 -5.8972 -1.0324 -0.8851 5.5943 7.8471 2.2752 -9.7301 -3.1202 4.4445 1.1394 -1.3727 -4.5393 3.5064 -0.2948 -0.7953 5.9387 4.0144 -2.9212 4.8418 8.5538 2.8036 -9.2634 -5.2891 -1.0251 1.1587 4.3705 1.3551 -4.6065 -5.5132 -2.0531 3.5557 5.7938 -1.5098 3.4396 7.1963 2.3416 -7.4767 -3.7400 0.8960 -7.0661 -3.9005 0.7624 1.9963 -2.2913 0.1202 -2.8344 -1.2883 -1.1875 2.6948 2.6281 0.1785 -0.4160 -1.9157 -0.0075 3.3628 -0.3352 3.2781 1.1126 -0.7279 -3.5418 4.2378 -0.7963 -1.3028 4.6729 1.3016 0.7746 -3.3579 -3.6285 -0.9138 3.5566 4.7996 -1.8779 4.6798 7.9387 2.4939 -8.8995 -4.1670 2.0263 -1.1835 -0.8720 -1.5595 2.9614 -1.9190 0.3607 -5.1888 -2.2765 -1.0464 2.3046 3.9485 -1.0906 4.6572 3.7849 0.9895 -4.5095 -4.3521 0.8139 -1.5282 -1.3523 -0.2846 2.7326 -1.5500 1.0687 0.6542 -1.7358 0.4412 -3.7418 -2.4334 -1.2110 4.0544 2.4836 -1.2082 3.9918 0.0424 0.7224 -5.6647 -3.4684 2.1941 0.2517 -1.1060 -2.1858 3.7676 -0.8689
-0.7117 -2.1786 -4.1607 2.8979 4.1210 -1.1689 3.4870 -4.7839 -4.3981 -3.2478 4.8230 7.4260 3.1745 -9.2612 -3.7670 -2.7695 0.5400 -2.4121 2.1098 5.4626 2.2690 -1.5444 2.1037 5.1081 -5.4725 5.1788 7.0423 2.3682 -9.8694 -1.7215 -4.7712 3.8463 2.0678 1.5960 -4.9459 0.0670 -4.4081 3.1317 4.9497 -4.0057 4.5622 5.2338 1.9522 -7.6552 -2.5831 2.9403 -6.7376 -1.9011 0.5322 2.4480 -2.5100 2.4422 -2.0116 -3.5630 -2.4839 3.3764 1.9440 1.7287 0.2725 -2.8507 -0.1637 2.3408 -0.0995 -1.8627 0.6831 -3.3801 2.2612 4.1775 1.9386 -0.2822 2.5355 2.3725 1.8232 -3.2162 -1.4774 -3.6561 2.5254 3.7860 -4.3557 4.8791 6.6486 2.5128 -9.0397 -2.6067 0.0675 -1.0631 -3.5864 1.7389 3.4742 -0.5195 2.8006 -4.5164 -3.1248 -3.7485 3.3555 2.5204 -2.1753 2.3252 3.9517 1.9334 -4.5107 -1.0243 1.3886 -0.9996 -3.3245 0.7430 2.7575 -1.0776 0.5297 0.9986 -2.8276 2.3113 -3.2162 -2.6815 -1.5426 2.7789 2.7389 0.3310 2.8458 1.1149 2.5660 -5.3211 -2.0875 -0.5075 0.2380 -3.2439 1.4726 3.5451 0.9183
-1.3026 -2.2308 -3.9011 2.6965 4.2909 -1.8458 0.9051 -4.9837 -4.2254 -6.2996 2.6191 7.2433 1.3515 -9.0180 -1.3695 -2.9800 0.3803 -1.8938 2.1818 5.8698 1.6654 -0.8796 2.8971 5.0960 -4.2054 2.9639 8.0836 3.4918 -9.0355 -0.5776 -4.6467 3.0119 2.1984 4.6634 -4.2634 -1.2429 -3.9022 2.6841 5.0360 -4.7474 3.6487 5.8357 2.3861 -6.9447 -1.0565 3.0236 -6.4985 -2.3511 0.3133 2.4091 -2.7264 1.8482 -2.0357 -4.3014 -2.3322 2.9603 1.8663 1.3989 0.2188 -3.3003 -0.0718 2.4493 -0.2309 -2.2073 0.6595 -2.9444 2.4524 4.6154 1.3000 0.0439 2.9914 2.2042 3.3941 -2.8042 -2.5455 -3.0968 3.4615 4.0242 -5.0162 3.0454 7.1737 2.5047 -8.4316 -0.9690 -0.3951 -1.1288 -3.5263 1.6891 3.6345 -0.9894 1.9637 -4.4316 -3.3656 -3.4990 3.0929 2.6108 -1.6213 3.1824 4.0231 3.7489 -4.0252 -2.0163 0.9449 -1.0588 -3.6530 0.6862 2.8118 -1.3510 0.2477 0.9443 -2.9560 2.3890 -3.0376 -3.3333 -1.2122 3.0070 2.6524 0.5223 3.1087 0.8585 2.8406 -5.0508 -2.5753 -0.8621 0.1821 -3.0787 1.5897 3.8390 0.4548
-1.7255 -1.8860 -3.9899 3.1500 3.9211 -1.7138 2.4414 -5.1146 -4.4398 -5.8161 4.5416 6.9243 4.0405 -8.9800 -1.2413 -2.8516 1.1666 -1.7783 3.7194 3.3426 2.3476 -0.5931 2.1500 5.1071 -6.2610 3.2488 5.0965 4.8123 -7.4723 -2.7718 -4.1645 3.7348 2.3080 0.5473 -4.6544 0.0054 -3.2090 3.7860 5.1480 -4.1059 3.1363 6.1763 3.2828 -6.7753 -1.0410 1.9193 -6.6952 -1.6899 0.4960 2.4675 -2.6538 1.4489 -2.2347 -3.9757 -1.8775 3.3690 2.0163 1.2708 0.1532 -3.2381 0.1666 2.3895 -0.1612 -2.2545 1.0865 -2.9692 3.0109 4.0372 1.4540 0.3916 2.6616 2.2920 0.8100 -3.1485 -1.7489 -2.8162 2.7717 4.0953 -5.5023 3.6269 5.9762 4.1239 -7.7493 -1.8017 -0.6914 -0.8940 -3.6313 2.0736 3.3538 -0.8755 1.8180 -4.6539 -3.1897 -3.0730 3.3691 2.7223 -1.3307 2.5384 4.0647 0.9222 -4.3650 -1.1204 0.6491 -1.0369 -3.6332 0.9516 2.7201 -1.2686 0.2219 1.0427 -2.9640 1.3215 -3.3073 -2.9331 -0.8367 2.8839 2.7595 0.8672 2.8705 0.9563 1.5961 -5.3004 -2.0447 -0.9812 0.4565 -3.1588 2.0372 3.4418 0.5841
-1.8012 -2.4959 -3.0411 2.6236 3.9521 -2.1595 0.6336 -5.4202 -3.9034 -5.1802 2.3159 7.2952 4.4435 -9.3658 -1.6432 -3.0764 0.5458 -1.0656 2.6606 5.9827 0.9282 -0.4144 3.6618 5.1780 -6.2239 2.4804 5.2730 3.1403 -9.2077 -3.5107 -4.3280 4.2354 2.5177 3.6359 -4.4354 -0.2159 -3.4571 4.1003 5.3837 -3.8202 2.6329 5.4152 3.7818 -7.2241 -2.2983 2.4850 -6.7881 -1.6529 0.0027 2.2130 -2.5975 1.3014 -2.4152 -3.7896 -2.0874 3.7459 2.0499 0.9717 -0.0503 -3.0562 -0.1120 2.5488 -0.1026 -2.5576 0.5018 -2.2936 2.6995 4.6487 0.9325 0.2721 3.3488 2.2308 2.5536 -3.0713 -1.7660 -2.5919 4.4961 4.2092 -5.2082 2.4869 5.9517 3.7231 -8.6905 -2.5701 -0.8523 -1.3712 -2.9210 1.6555 3.4793 -1.1494 1.4794 -4.8031 -2.8696 -3.1579 4.1297 2.8526 -1.1850 3.9804 4.1359 2.8994 -4.2657 -1.1766 0.4643 -1.3454 -3.2067 0.5551 2.7221 -1.3213 -0.1217 0.7361 -2.6688 1.7583 -3.3791 -2.7451 -0.9184 3.6434 2.7582 0.6381 3.2633 0.8459 2.2459 -5.3577 -1.9311 -1.2461 -0.0086 -2.5677 1.7155 3.8440 0.2657
-0.7317 -3.5633 -0.2899 -0.0512 4.0509 -3.0009 2.6220 -5.5340 -0.9754 -3.9779 6.3246 7.2710 2.3702 -9.5671 -4.1093 -3.2051 -0.7336 0.3638 0.0004 6.6709 -0.2334 0.8382 3.9246 4.9508 -5.0616 4.7180 6.0613 3.0633 -8.6795 -6.0928 -3.6115 2.2085 4.3056 3.4523 -3.9043 -5.4705 -2.0674 3.9267 6.2527 -2.7181 5.1650 5.6848 2.2525 -7.2443 -4.3282 3.4898 -6.4654 -3.9383 -1.0927 1.1765 -2.0893 2.1562 -2.4833 -1.1513 -1.8606 2.8360 2.8909 0.7405 -0.5145 -1.7833 -0.5546 2.1890 0.1505 -2.7278 -1.1377 -0.8175 0.7515 5.5713 -0.3264 0.2112 3.6486 2.0026 2.6988 -2.8481 -3.5327 -1.4873 2.9968 5.2052 -4.0509 5.3438 6.3406 2.6361 -8.5449 -4.9561 -0.3713 -2.2650 -0.8949 -0.1717 3.5073 -1.6329 2.7398 -4.7516 -2.2168 -2.4833 2.6418 4.1182 -0.3275 3.5439 4.4221 3.1104 -3.9180 -4.2992 0.8395 -1.8206 -1.2890 -0.6098 2.2939 -1.2429 -0.6133 -0.1666 -1.6591 2.4858 -3.3225 -2.3436 -0.6018 3.3596 3.0239 -0.0513 3.4149 0.6102 3.1014 -5.1268 -3.4457 -1.3244 -1.1747 -1.1110 0.1930 4.2532 -0.4238
-1.6220 -1.9511 -3.8694 3.4312 2.7088 -0.2847 2.0441 -5.1694 -5.1572 -5.1309 6.8298 6.3252 4.2265 -9.6083 -2.7447 -2.7289 0.7030 -1.3054 3.2472 3.9884 2.9079 -2.0394 2.0901 5.4919 -4.7189 7.1665 4.1066 4.4897 -8.0850 -4.4237 -4.2841 4.6286 2.0934 1.6131 -5.2761 -0.3230 -4.3261 4.1211 5.0777 -3.5711 5.4132 5.2998 3.6020 -7.4038 -2.2863 2.1504 -7.1263 -2.6059 0.7691 2.0532 -1.8815 1.5466 -2.3452 -4.0527 -2.2266 3.5275 2.2426 1.4461 -0.1495 -2.8589 -0.1064 1.9718 0.4765 -2.0402 0.8613 -2.4377 2.5992 2.8276 2.7853 -0.3909 2.1521 2.9355 1.5035 -3.5375 -1.8703 -3.7367 3.2251 4.0103 -4.5260 6.5528 5.1458 4.1425 -8.3708 -3.2885 -0.5505 -1.0699 -3.3654 2.0872 2.4248 0.2562 1.8572 -4.8713 -3.7285 -3.4839 3.9207 2.6870 -2.4174 2.5742 4.3076 1.6574 -4.8429 -1.4638 0.7842 -1.2381 -3.4363 0.9627 2.1119 -0.4138 0.4318 0.7092 -2.4128 1.6094 -3.5504 -3.1651 -1.5714 2.7384 3.1520 0.4180 2.2398 1.7525 1.9038 -5.6715 -2.6636 -0.7915 0.2037 -2.6908 1.7398 2.5235 1.6763
-1.7796 -3.4727 -1.8720 2.2452 3.2096 -1.5265 2.2086 -6.1621 -1.3172 -4.5459 7.2481 6.7433 4.4945 -8.6827 -6.0478 -3.7274 -0.2300 -1.3837 2.2744 5.4493 1.4791 -0.7549 3.0684 5.8430 -5.0713 6.8769 4.5539 3.3496 -9.5014 -4.2523 -4.6493 3.9440 3.1699 3.7857 -3.6066 -5.1280 -3.5264 4.4244 5.9365 -3.1316 5.8290 5.5342 3.0837 -7.1984 -4.9176 3.9551 -6.3692 -4.0035 -0.3534 1.4013 -1.8560 1.3149 -3.2301 -1.0962 -2.4149 3.4340 2.7113 0.7524 -0.8143 -1.4241 -0.5375 1.9952 0.5826 -2.7815 -0.4781 -2.2923 2.2949 4.1156 1.5202 -0.1099 2.8093 2.8888 2.4765 -3.0315 -3.2862 -3.0970 3.3535 4.9554 -4.3563 6.6862 5.5258 3.6451 -8.5805 -4.9982 -0.9485 -2.2581 -1.7532 1.2349 2.8605 -0.5073 2.4804 -5.1452 -2.3454 -3.5195 3.6447 3.5265 -1.6205 3.1193 4.8285 3.2065 -3.8808 -4.0872 0.3597 -2.1556 -1.4471 0.1352 2.0934 -0.6391 -0.4009 -0.0794 -1.7357 2.0598 -3.7506 -2.2874 -1.2882 3.1284 3.4275 0.2188 2.7520 1.4938 3.2003 -5.2216 -3.4639 -1.4574 -0.8987 -1.9383 1.2953 3.3044 0.8862
-2.0977 -2.6743 -2.7000 3.1320 2.8405 -0.5744 0.3356 -6.2548 -2.1713 -4.8845 7.5520 6.1825 5.4794 -8.2321 -4.9406 -3.3020 0.8365 -2.2011 3.4007 2.8205 3.2334 -1.7448 2.7423 5.7453 -4.8389 7.4810 3.9018 3.9623 -9.8096 -4.2956 -4.4941 4.6013 2.2583 4.1247 -4.1903 -4.3947 -4.1632 4.6641 5.2686 -3.4456 5.9936 5.1929 3.8361 -7.5674 -3.4140 2.7661 -6.8401 -4.1982 0.4284 1.6166 -1.7183 0.6873 -3.3324 -1.2536 -2.3232 3.7423 2.3670 0.8342 -0.8394 -1.3873 -0.2499 2.0205 0.6723 -2.2109 0.5066 -2.8946 2.5539 3.5257 2.4803 -0.3128 2.6458 3.0749 2.5484 -3.3640 -2.8880 -3.6276 3.6192 4.3149 -4.4612 7.0712 4.9894 4.3947 -8.6677 -4.2568 -1.0389 -1.7444 -2.2595 1.8629 2.5954 0.1397 1.3728 -5.3492 -2.6909 -3.5706 4.0868 2.8731 -2.2278 3.1396 4.5667 3.1394 -4.3199 -3.6839 0.1438 -2.0220 -1.6752 0.7180 2.0682 -0.3370 -0.0019 0.1984 -1.8213 1.5390 -3.9492 -2.3182 -1.5122 3.1798 3.3183 0.3643 2.5629 1.8135 2.3877 -5.5837 -3.5220 -1.1485 -0.2868 -2.3478 1.6443 2.9165 1.5514
-0.3150 -0.5350 -4.7324 2.1706 -0.7353 2.4502 0.2932 -5.8726 -1.6434 -3.6912 8.7597 5.8433 3.7770 -9.9562 -4.3325 -0.0984 2.7952 -2.9660 0.5643 0.9344 5.3405 -4.2392 3.7656 3.6566 -4.3599 6.7177 6.6136 1.7260 -10.0862 -3.3425 -1.1346 6.9382 1.8993 3.7663 -4.8866 -4.8906 -3.6922 6.7520 3.4832 -2.8553 6.8745 4.7373 2.4817 -8.0085 -4.3109 2.8512 -7.1322 -3.1364 1.8599 0.7938 -0.3424 -0.0914 -3.0612 -2.8312 -1.1265 4.6164 2.2003 0.9193 -1.3131 -1.3358 -0.0507 1.8034 0.9336 0.8914 1.9065 -3.0758 -0.1193 0.4172 4.3200 -1.7802 2.3461 2.6159 1.9764 -3.6337 -4.0737 -3.1672 5.7334 2.4951 -3.7243 7.4055 5.8299 2.5939 -9.4460 -3.9151 0.2317 -0.6026 -3.3635 1.1799 0.2893 2.0629 1.1913 -5.2775 -2.6453 -1.6906 5.8877 2.1839 -3.2835 4.2889 2.8842 2.7840 -4.7447 -4.1771 0.3400 -1.6748 -2.5547 1.0380 0.9278 0.8846 1.1673 0.0675 -1.4392 1.0676 -3.9344 -3.1959 -2.0215 3.6582 2.5972 -0.5787 1.6763 2.2270 2.2491 -5.7893 -3.2761 0.7647 0.5473 -2.6361 0.1351 0.7872 2.9576

>  <OB_ATOM_TYPES> (1bbpA1)
C.3 C.3 C.3 O.co2 O.co2 C.2 C.2 C.2 O.co2 O.co2 O.2 O.2 C.3 C.3 C.3 C.3 C.3 C.3 N.am N.ar N.ar C.2 C.2 C.2 N.am C.3 C.2 C.2 C.ar C.ar C.2 C.2 C.2 C.2 C.ar C.ar C.ar C.2 C.2 C.ar C.2 C.ar C.ar

>  <ENSEMBLE_RMSD> (1bbpA1)
1.137 1.588 1.689 1.704 1.733 1.788 1.874 1.918 1.946 1.947 1.955 1.966 1.993 2.017 2.032 2.101 2.149 2.208 2.260 2.295 2.299 2.327 2.331 2.331 2.353 2.357 2.389 2.509 2.616 2.654 2.684 2.724 2.844 2.911 2.947 3.008 3.040 3.040 3.184 3.279 3.288 3.575 3.584 3.754 3.806 4.305 4.369 4.754 4.840 4.841

$$$$
