
 OpenBabel03071213D

 34 36  0  0  0  0  0  0  0  0999 V2000
   36.1720   17.0100   -5.1920 C   0  0  0  0  0
   37.2120   14.9030   -5.8190 C   0  0  0  0  0
   33.0630   11.4800  -10.1480 O   0  0  0  0  0
   34.7530   16.1760   -9.5480 O   0  0  0  0  0
   35.0740    8.7640  -10.9330 O   0  0  0  0  0
   34.4110    7.5570   -8.8920 O   0  0  0  0  0
   34.4460   13.4270  -10.5640 C   0  0  0  0  0
   35.2640   11.3260   -9.3130 C   0  0  0  0  0
   36.9270   16.7220   -7.6860 C   0  0  0  0  0
   35.6570   14.1210  -10.0380 N   0  0  0  0  0
   34.9320   10.0410   -8.7200 N   0  0  0  0  0
   36.1920   23.0060  -11.7910 C   0  0  0  0  0
   39.4280    7.6860   -8.5830 C   0  0  0  0  0
   36.5060   22.5160  -10.5830 C   0  0  0  0  0
   36.3960   22.2000  -12.8590 C   0  0  0  0  0
   39.0540    8.5170   -9.6910 C   0  0  0  0  0
   38.9660   17.1720  -12.2650 C   0  0  0  0  0
   38.3650    7.1210   -7.8180 C   0  0  0  0  0
   38.5940   16.3020  -11.2070 C   0  0  0  0  0
   37.0090   21.2510  -10.4490 C   0  0  0  0  0
   36.9070   20.9290  -12.7030 C   0  0  0  0  0
   38.5200   18.5260  -12.2730 C   0  0  0  0  0
   37.7030    8.7260   -9.9710 C   0  0  0  0  0
   37.3690   18.1980  -10.2310 C   0  0  0  0  0
   37.0730    7.3640   -8.1450 N   0  0  0  0  0
   36.3530   16.0500   -6.3880 C   0  0  0  0  0
   34.0810   12.2580   -9.6300 C   0  0  0  0  0
   37.1260   15.9440   -9.0570 C   0  0  0  0  0
   35.7080   15.4250   -9.5760 C   0  0  0  0  0
   37.7750   16.8200  -10.1530 C   0  0  0  0  0
   37.2190   20.4360  -11.4710 C   0  0  0  0  0
   37.7290   19.0560  -11.2890 C   0  0  0  0  0
   36.8130    8.1330   -9.1710 C   0  0  0  0  0
   35.2530    8.5010   -9.5100 S   0  0  0  0  0
  1 26  1  0  0  0
  2 26  1  0  0  0
  3 27  1  0  0  0
  4 29  2  0  0  0
  5 34  2  0  0  0
  6 34  2  0  0  0
  7 10  1  0  0  0
  7 27  1  0  0  0
  8 11  1  0  0  0
  8 27  1  0  0  0
  9 26  1  0  0  0
  9 28  1  0  0  0
 10 29  1  0  0  0
 11 34  1  0  0  0
 12 14  2  0  0  0
 12 15  1  0  0  0
 13 16  2  0  0  0
 13 18  1  0  0  0
 14 20  1  0  0  0
 15 21  2  0  0  0
 16 23  1  0  0  0
 17 19  2  0  0  0
 17 22  1  0  0  0
 18 25  2  0  0  0
 19 30  1  0  0  0
 20 31  2  0  0  0
 21 31  1  0  0  0
 22 32  2  0  0  0
 23 33  2  0  0  0
 24 30  2  0  0  0
 24 32  1  0  0  0
 25 33  1  0  0  0
 28 29  1  0  0  0
 28 30  1  0  0  0
 31 32  1  0  0  0
 33 34  1  0  0  0
M  END
>  <MOLID> (1bgoA1)
1bgoA1

>  <SMILES_CANONICAL> (1bgoA1)
O[C@@H](CNS(=O)(=O)c1ccccn1)CNC(=O)[C@@H](c1cccc(c1)c1ccccc1)CC(C)C	

>  <FINGERPRINT> (1bgoA1)
0000000000000001001000000001001000000001000000000101010000000000000000010001000001000001010000100000000110110001000001100000000000000000000011000001000010000001000000000100000000000000000000000000000000000000000000000000000000100000000000000000000000000000000000000000010000001000100000000000000001001000000010011100000000001000001100000010000000000100011000000000000110010000000000000000010100000000100010000000001000000000001000000000000000000011110000001010100000000000000000000000000000001110000000000000110000010000000000100010000000000000000000100000000000010000000000000000010001100000000000000010000000000001000000000111011000000011110000000000000000000001000000000001100000101000100011100000000000110011101100000000000000000000110110010101000000000000010110000000001000000100000000000000000010010000000000000000000010001100000000000000000000000000001000000001000000000000010000000100110100000100000000000100010000000000001000100000011000000000000100110000000000000000001000000000000000000000000000010010011001100000

>  <MACCS166> (1bgoA1)
000000000000000000001000000000011000000000001010011011100111110110100000110101111000000101010110011001010100010100101011100110010111000111111100110110111111111110111000

>  <OB_MW> (1bgoA1)
481.204

>  <OB_logP> (1bgoA1)
5.1965

>  <OB_PSA> (1bgoA1)
116.77

>  <OB_MR> (1bgoA1)
132.675

>  <OB_ATOMIC_CHARGES> (1bgoA1)
2.3208e-05 2.3208e-05 -0.219619752 -0.2730003249 -0.1501258638 -0.1501258638 0.1494419781 0.150098658 0.0135434309 -0.2023946078 -0.0735763547 0 0.0207710868 -5e-10 -5e-10 0.0045553489 -0.0003106301 0.1004108969 -0.0038060887 -1.223e-07 -1.223e-07 -1.96347e-05 0.0395885304 -0.0038059664 -0.2244164512 0.000806764 0.1927611291 0.1003891261 0.2450690473 -0.0138207508 -9.6349e-06 -0.0003009956 0.2043242944 0.0935264578

>  <MCT_HBD> (1bgoA1)
3

>  <MCT_HBA> (1bgoA1)
7

>  <ENSEMBLE_TOTAL> (1bgoA1)
50

>  <ENSEMBLE_COORDS> (1bgoA1)
1.8740 -0.7963 3.7001 0.4511 1.1399 4.1860 -3.0715 -2.7145 -2.1095 -2.6065 1.4653 0.6039 -0.8264 -7.0886 0.1009 -1.7150 -5.6941 1.9866 -2.7436 -1.2727 -0.2627 -2.7843 -3.7181 0.0300 0.3919 0.0469 1.9448 -1.5615 -0.5429 0.1119 -2.1660 -4.9725 -0.4406 0.3581 7.9317 -2.3878 2.5694 -3.2085 0.3541 -0.6580 7.1783 -1.9334 1.6923 7.3697 -2.4579 2.1829 -4.0047 -0.6514 1.8685 1.6419 -1.8178 1.7130 -3.3092 1.5650 1.3057 1.0795 -0.7362 -0.4214 5.8018 -1.5386 1.9126 6.1055 -2.0577 1.6826 3.0545 -2.0778 1.0143 -4.8381 -0.5213 0.3960 3.2123 -0.0439 0.6554 -4.0421 1.7163 1.2577 0.4517 3.1119 -2.3607 -2.5936 -0.8860 -0.2991 1.1943 1.2301 -1.6181 0.7350 0.6294 0.5076 1.8857 0.1750 0.8144 5.2551 -1.5833 0.9843 3.8449 -1.2326 0.3241 -4.8162 0.6304 -1.1237 -5.7817 0.6624
1.2478 0.3186 4.1459 -1.1481 0.4894 3.6672 -3.6648 -2.8583 1.1461 -2.6083 1.7093 0.1973 2.3087 -3.9180 0.8479 0.9265 -3.9548 -1.2413 -2.4155 -1.1512 0.0808 -1.5188 -3.4509 0.3391 0.5440 1.0350 1.9056 -1.3542 -0.2267 0.3896 -0.2097 -3.4943 1.0182 0.0707 8.5059 -2.8719 0.2842 -8.6492 0.9218 -0.8603 7.8334 -2.1740 1.3400 7.8729 -3.1693 0.5830 -7.8069 1.9200 1.6186 2.2349 -2.1391 0.2817 -8.0142 -0.4232 1.1148 1.7163 -1.0083 -0.6036 6.4708 -1.7448 1.5859 6.6237 -2.7383 1.4142 3.6350 -2.4429 0.8405 -6.4136 1.6550 0.2214 3.8707 -0.3594 0.5190 -6.7700 -0.6982 0.2051 1.0963 3.3780 -2.3449 -2.3620 0.9825 -0.3634 1.8933 1.0425 -1.5660 1.1318 0.5005 0.3567 2.5553 -0.0917 0.5747 5.8574 -1.9976 0.7581 4.4602 -1.5963 0.7907 -5.9718 0.3878 1.0714 -4.2684 0.1705
2.5452 -0.1067 3.0334 0.9175 1.5148 3.9096 -3.4112 -3.4592 -0.4201 -2.6345 1.5435 0.4019 2.4661 -4.0260 0.2779 1.2018 -4.9692 -1.6696 -2.4967 -1.2681 -0.3170 -1.1258 -3.2255 -0.9962 0.6051 0.4681 1.6780 -1.5431 -0.4910 0.4318 0.1512 -3.0970 -0.2684 -0.1121 8.4594 -2.1392 -0.7551 -7.3468 2.5283 0.3125 8.0179 -0.9427 -0.3134 7.5155 -3.2197 -0.1943 -6.2093 2.9603 1.4107 2.1188 -2.2713 -0.6270 -7.5660 1.0629 0.9730 1.4900 -1.1686 0.5668 6.6037 -0.7347 -0.1098 6.2034 -3.0137 1.2314 3.5503 -2.4087 0.4390 -5.3061 2.0343 0.1441 3.5724 -0.2573 -0.0547 -6.7814 0.2048 1.6052 1.0171 2.6612 -2.2340 -2.7405 -0.0911 -0.3022 1.4980 1.0286 -1.6183 0.8751 0.5774 0.3097 2.2423 -0.1155 0.3598 5.6987 -1.7177 0.6084 4.2813 -1.4574 0.4774 -5.6295 0.7318 1.2070 -4.4479 -0.3129
1.3753 0.6942 4.4180 -0.1707 2.6011 4.3331 -3.7832 -3.4699 0.6159 -3.0214 1.6708 0.4213 2.2511 -3.1566 0.4187 0.9513 -3.3779 -1.7166 -3.0621 -1.2080 0.5651 -1.5880 -3.0561 -0.1815 -0.1356 0.8997 2.5140 -2.1019 -0.3151 1.1622 -0.2781 -2.8955 0.4777 0.5188 7.6956 -3.1572 0.9395 -8.0798 0.3738 -0.5767 7.1324 -2.6195 1.7868 6.9956 -3.1021 1.9184 -7.4925 -0.3273 1.3487 1.4516 -1.5730 -0.0915 -7.1349 0.8793 0.7331 1.1350 -0.4222 -0.4922 5.8173 -2.0118 1.8671 5.7932 -2.5066 1.3064 2.8138 -2.0644 1.9195 -6.0672 -0.5365 0.0367 3.4329 -0.1097 -0.1181 -5.8502 0.7126 0.6914 1.6824 3.5019 -2.6493 -2.6411 0.8098 -0.8498 1.7369 1.4698 -2.1042 1.0453 0.9490 0.0116 2.1559 0.3221 0.6785 5.1448 -1.9410 0.6939 3.7990 -1.3705 0.9250 -5.3301 -0.0154 1.0697 -3.6226 -0.2888
0.7958 0.9435 4.3166 1.4306 2.8068 2.8609 -2.7685 -1.9643 -1.6304 1.9491 -0.4765 -1.0416 -1.1581 -7.0735 -1.0501 -2.2651 -7.0225 1.2024 -0.4348 -2.0817 -1.1899 -1.8199 -4.1175 -1.3705 0.4794 0.6995 1.9006 -0.2193 -0.9255 -0.3575 -2.4095 -4.9470 -0.3016 1.3813 8.2332 -2.1749 2.1891 -4.3865 1.8357 2.0703 7.4361 -1.3406 0.1127 7.7846 -2.7126 2.2246 -5.0592 0.6776 -2.1470 3.1054 -0.3162 0.8582 -4.3965 2.5006 -1.3785 2.0555 0.0118 1.5259 6.1486 -0.9514 -0.3683 6.5754 -2.3786 -1.5302 4.3227 -0.7957 1.0432 -5.7076 0.1658 0.6274 3.2628 -0.6025 -0.2218 -4.9718 2.0736 1.3676 1.3009 2.9648 -1.7892 -2.6848 -0.8967 0.8973 1.0458 0.4841 0.9433 -0.1858 -0.3983 0.0694 2.1360 -0.1174 0.3458 5.7026 -1.4379 -0.1928 4.4272 -0.9637 -0.0928 -5.6372 0.8765 -1.5149 -6.3483 0.1571
1.8289 1.1664 5.2023 -0.5454 1.7654 5.0810 -2.8841 -3.1994 1.5646 -2.5537 1.8861 1.9192 1.5494 -3.3753 -2.2417 -0.7198 -4.3490 -2.6825 -2.4341 -0.9032 1.1583 -1.8508 -2.6493 -0.5005 0.7370 1.2365 3.0027 -1.3711 -0.0915 1.6931 -0.4387 -2.5163 -0.9082 -0.2535 6.8612 -3.9194 1.2319 -7.1048 1.2186 -1.0623 6.5111 -2.9049 0.9662 6.1151 -4.1542 1.7447 -7.1013 -0.0191 1.5393 1.2078 -1.2519 0.3013 -5.9780 1.4894 1.1661 1.1136 0.0340 -0.7260 5.3753 -2.0661 1.2891 5.0861 -3.3522 1.2664 2.4201 -1.9930 1.4037 -6.0585 -0.9548 0.2706 3.3611 -0.0078 -0.0273 -5.0282 0.6725 0.7843 1.8754 4.3721 -1.9442 -2.3191 0.9703 -0.1540 1.9762 2.0202 -1.4912 1.2719 1.8592 0.4649 2.2149 0.6775 0.4093 4.6655 -2.2535 0.6703 3.4891 -1.4186 0.5672 -5.0827 -0.5645 0.2656 -3.8423 -1.7421
2.7433 -0.6010 3.4182 0.3211 -0.7371 3.6497 -3.4384 -3.1886 0.0048 -2.0362 1.4027 1.8510 2.2212 -4.0655 -1.0594 0.1950 -5.1767 -2.0271 -2.4038 -1.0657 0.2770 -1.4711 -2.8173 -1.2576 1.3423 0.3710 1.6440 -1.1866 -0.4486 0.7437 -0.0115 -2.8119 -1.0314 -0.0946 8.1459 -2.5491 -0.2548 -5.7943 3.1389 -0.3676 7.2052 -3.4685 0.3853 7.7459 -1.2409 0.6043 -4.7843 2.9462 0.7407 1.6710 -2.4868 -0.7628 -6.4003 1.8791 0.7050 1.1634 -1.2451 -0.1916 5.8024 -3.1400 0.5731 6.4448 -0.9549 0.6323 3.1000 -2.6842 0.9441 -4.3489 1.6141 0.3975 3.3688 -0.3000 -0.4709 -6.0425 0.6678 1.4499 0.1297 3.1384 -2.1731 -2.5473 0.0558 0.2891 1.3984 1.2471 -1.1128 0.8107 1.2984 0.5137 2.0379 -0.0958 0.2769 5.3938 -1.9355 0.4453 3.9569 -1.6539 0.4025 -4.9855 0.5625 0.7932 -4.3328 -1.0067
0.2043 2.9320 4.9154 1.0846 0.6723 5.2844 -3.0349 -3.2807 1.6338 -2.6933 1.8227 1.8577 1.6561 -3.0910 -2.0436 -0.5410 -4.1065 -2.6863 -2.5370 -0.9862 1.2236 -1.8338 -2.7790 -0.3479 0.6671 1.4238 2.9834 -1.4838 -0.1481 1.7477 -0.4184 -2.5211 -0.6709 0.1582 6.8371 -4.0138 1.2217 -7.0352 1.2511 0.1479 5.5986 -4.5346 0.3362 7.0109 -2.5855 1.8485 -5.8546 1.3395 1.3905 1.0531 -1.2794 0.2941 -7.1386 0.0928 0.9536 0.9886 -0.0125 0.2949 4.4490 -3.6636 0.5081 5.9412 -1.7884 1.2548 2.2869 -2.0233 1.5774 -4.8039 0.3904 0.1710 3.2782 -0.1127 0.0372 -6.2208 -0.7858 0.1775 1.5089 4.4121 -2.0491 -2.4121 1.1006 -0.3033 1.9677 1.9528 -1.6213 1.2202 1.8484 0.3043 2.1396 0.5976 0.4895 4.5778 -2.3298 0.6516 3.3787 -1.4992 0.7016 -5.0309 -0.6022 0.3853 -3.6785 -1.6516
1.9162 2.8349 3.3814 0.8549 1.7739 5.3209 -2.9738 -3.5136 1.5907 -3.1576 1.6301 1.4036 1.7377 -3.3153 -1.9774 -0.4315 -4.3588 -2.6692 -2.7326 -1.2074 1.0621 -1.8093 -2.9845 -0.4058 -0.0389 1.3524 3.0711 -1.7914 -0.2357 1.5602 -0.3850 -2.7257 -0.6874 0.4226 6.9696 -3.8112 1.2280 -7.1884 1.3795 0.5217 5.7398 -4.3430 0.3733 7.1255 -2.3707 1.8677 -6.0132 1.4446 1.4271 1.1994 -0.9822 0.3052 -7.3094 0.2193 0.7739 1.0845 0.1834 0.5588 4.5803 -3.4746 0.4458 6.0477 -1.5695 1.3614 2.4419 -1.7197 1.6164 -4.9841 0.4675 -0.1022 3.3328 -0.0226 0.0661 -6.4111 -0.6838 0.5963 2.3896 3.9658 -2.0811 -2.5710 1.0208 -0.8352 1.9590 1.9280 -2.0582 1.1175 1.6005 -0.0380 2.1843 0.6813 0.5448 4.6945 -2.1258 0.6138 3.4874 -1.2978 0.7456 -5.2264 -0.5255 0.4574 -3.9006 -1.6145
0.6547 1.8019 5.3603 -1.6550 2.2703 4.6789 -3.0228 -3.3047 2.0263 -2.9148 1.7413 0.9207 1.9979 -3.1222 -1.3258 -0.1861 -3.7866 -2.3540 -2.6376 -1.0935 1.2597 -1.5897 -3.0377 0.1496 0.0424 1.5788 2.9943 -1.6805 -0.0844 1.6301 -0.1297 -2.8563 0.0457 0.5348 6.9461 -4.0627 1.0772 -7.9558 0.3404 0.5125 5.6877 -4.5333 0.6434 7.1787 -2.6356 -0.1185 -7.4214 0.0583 1.7794 1.3951 -0.9357 2.2193 -7.0282 0.1225 1.0614 1.2770 0.1921 0.5778 4.5723 -3.6103 0.7417 6.1403 -1.7870 1.6702 2.5980 -1.7330 -0.2247 -6.0669 -0.4230 0.0516 3.4502 -0.1609 2.1596 -5.8053 -0.3018 -0.2081 2.3676 4.2570 -2.0306 -2.4585 1.4716 -0.7098 2.1247 1.7948 -1.8917 1.2569 1.3997 0.1576 2.3426 0.5992 0.7169 4.7600 -2.2777 0.8246 3.5986 -1.3985 0.8941 -5.3396 -0.5714 0.6826 -3.7270 -1.1902
0.7693 2.5892 5.4328 -1.5922 2.7986 4.7954 -2.4550 -3.0905 2.6259 -2.9099 1.7216 1.3190 2.1792 -3.5120 -1.1593 -0.1463 -3.5918 -2.1010 -2.2416 -1.0826 1.3789 -1.2682 -3.2080 0.5747 0.0827 1.9384 3.1686 -1.3683 0.0249 1.6671 0.1969 -3.3232 0.4452 0.1076 6.8278 -4.2321 0.7444 -8.4249 -0.5117 -0.9122 6.3231 -3.5170 1.4525 6.3339 -4.0134 1.8484 -7.7825 -0.9161 1.8264 1.5645 -0.8194 -0.4205 -7.5312 -0.2733 1.1716 1.4957 0.3507 -0.6691 5.2645 -2.5554 1.6776 5.3791 -3.0947 1.5898 2.6801 -1.7120 1.8495 -6.3499 -1.0790 0.0495 3.5927 -0.0968 -0.4557 -6.2431 -0.4121 -0.1709 2.9104 4.2961 -1.5656 -2.3679 1.7912 -0.6605 2.3198 1.9051 -1.7750 1.3395 1.5931 0.2112 2.5278 0.7120 0.5754 4.7878 -2.3278 0.7565 3.6911 -1.3789 0.7284 -5.6643 -0.8062 0.7942 -3.9384 -1.0494
-0.4684 0.3636 4.7668 -2.5093 -0.0028 3.4579 -4.2988 -2.9361 0.8652 -2.8150 1.2636 -0.2272 -0.2270 -6.1911 1.6434 1.2914 -4.4409 2.6039 -2.6495 -1.6260 -0.2184 -2.1041 -3.8165 0.8147 -0.3747 0.5630 2.3180 -1.6139 -0.6847 0.1260 -1.0640 -3.7813 1.8611 1.2808 7.4973 -2.9917 1.8489 -3.9630 -2.5090 0.1234 6.8865 -2.6859 2.5391 6.8528 -2.6730 1.6692 -5.2201 -2.0814 2.1318 1.3170 -1.1783 1.5141 -2.9260 -1.4961 1.2538 0.9420 -0.2343 0.1369 5.5714 -2.0726 2.5461 5.6512 -2.0709 2.1079 2.6728 -1.6860 1.1774 -5.4825 -0.7517 0.3018 3.1665 -0.1658 1.0777 -3.1253 -0.2921 -1.2321 0.7997 3.5400 -2.9320 -2.5599 0.9355 -0.8388 1.3825 1.1304 -1.8688 0.6625 0.2775 0.2703 1.8903 0.2673 1.2955 4.9479 -1.7615 1.2530 3.5992 -1.1978 0.8962 -4.4448 0.0513 0.2810 -4.8289 1.6345
-0.4460 1.7164 4.2020 1.0199 3.4775 3.2370 1.8212 -2.4896 -2.1648 -1.8166 0.6406 -0.2130 -1.2806 -4.1722 1.6034 0.5742 -5.3855 2.7782 0.0123 -1.4122 -1.0691 0.4360 -3.8293 -0.7837 0.8373 1.2222 2.1149 0.2628 -0.3751 -0.1023 0.9888 -4.4478 0.4364 -1.3757 8.3509 -2.6075 -1.6353 -9.0177 -0.1062 -1.5960 7.8890 -1.3648 -0.4485 7.6567 -3.4779 -2.3999 -8.2520 0.6840 2.5451 3.3301 -1.1818 -0.2850 -8.4514 -0.3675 1.9291 2.4605 -0.3666 -0.8974 6.7076 -0.8950 0.1712 6.5445 -3.0488 1.8657 4.5432 -1.5847 -1.9023 -7.0026 1.2043 -0.0496 3.8534 -0.2940 0.1924 -7.3324 0.0802 0.8025 1.9967 3.4096 1.0788 -2.4751 -0.9562 -0.0731 1.7428 1.0151 -0.6507 0.6194 0.1746 0.5804 2.7326 0.1056 -0.0446 6.0263 -1.6928 0.6034 4.8179 -1.1863 -0.6680 -6.5988 0.8631 -0.1518 -5.0868 1.5549
2.4478 -0.3892 2.2882 3.3109 -1.8598 0.5128 -2.4712 -2.6337 -2.6748 -1.2481 0.6410 1.0766 1.0851 -6.4839 0.1409 -1.3863 -6.8891 0.1798 -1.7439 -1.5370 -0.7025 -1.7284 -3.9967 -0.8882 2.0963 0.1887 -0.1122 -0.6358 -0.6194 -0.7690 -0.4776 -4.7760 -0.9477 -0.5070 8.5841 -0.3034 -0.4615 -3.6078 4.1185 -1.0219 7.5419 0.3710 0.3900 8.3474 -1.4171 0.5292 -3.4319 3.2342 0.5691 2.8721 -3.2263 -1.4466 -4.6487 3.7205 0.7944 1.8955 -2.3322 -0.7052 6.1868 -0.0383 0.7090 7.0901 -1.7695 0.3350 4.2274 -2.7708 0.5777 -4.2046 2.0184 0.6406 3.4707 -0.5016 -1.4305 -5.3652 2.6406 2.1901 -0.9280 0.9025 -1.5109 -2.7027 -1.6322 0.8811 1.0734 0.0673 -0.4462 0.3515 0.1908 0.7972 2.1967 -0.9087 0.1315 5.9371 -1.0705 0.3839 4.5519 -1.4596 -0.3810 -5.1162 1.7883 -0.2668 -5.9664 0.2744
-3.1889 3.2086 4.2767 -0.9068 4.0973 4.0854 1.5397 -2.5572 1.5510 1.3938 0.8375 2.7949 0.3020 -3.2702 -1.4878 -1.7086 -4.6624 -2.0199 -0.2197 -1.5297 2.7637 -0.5531 -3.6627 1.5496 -1.7726 2.4456 2.4213 -0.6396 -0.2013 2.3942 -1.3952 -3.7830 0.3438 1.4741 7.2593 -3.4808 1.7539 -8.0984 -0.5389 1.0114 7.2690 -2.2192 1.5507 6.0080 -4.2082 1.9322 -7.2990 -1.5991 -1.1178 1.5414 -1.7576 0.7149 -7.6163 0.4100 -1.0078 1.3293 -0.4363 0.5603 6.0354 -1.6034 1.1658 4.8628 -3.6197 -0.5633 2.7448 -2.3424 1.1611 -6.0902 -1.7472 0.2448 3.3812 -0.1626 0.0002 -6.5403 0.3034 -1.7729 2.8796 3.8691 0.1403 -2.3226 1.5312 -0.3894 2.1501 1.8832 0.2301 0.8690 2.4002 -0.3107 2.2920 0.4024 0.6249 4.8526 -2.2555 0.1163 3.6477 -1.6003 0.2659 -5.7651 -0.7998 -0.6361 -4.3131 -1.1015
-1.5796 3.6210 4.7499 -1.0717 1.4037 5.6674 -3.4984 -3.2809 1.7350 -3.2886 1.7708 1.0251 2.2365 -2.4826 -0.0497 0.3899 -2.4439 -1.7376 -2.8752 -1.0741 1.0819 -1.5680 -3.0536 0.3774 -0.5563 1.8649 3.3136 -2.0587 -0.0648 1.7119 -0.1435 -2.9217 0.7337 1.2835 6.0471 -4.2687 1.4879 -7.4362 -1.4432 2.3769 5.3956 -3.8376 -0.0059 5.7511 -3.6764 0.3167 -6.8112 -1.6229 1.6390 0.8839 -0.3171 2.5628 -6.5562 -0.9114 0.8027 0.9881 0.7273 2.2652 4.4228 -2.7660 -0.1084 4.8215 -2.7104 1.7074 1.9481 -1.2956 0.1751 -5.4089 -1.3184 0.0782 3.1762 -0.0120 2.4688 -5.2966 -0.6204 -1.5321 2.1454 4.4342 -2.3827 -2.4425 1.4889 -1.1000 2.1550 1.9287 -2.2673 1.2807 1.5032 -0.0424 2.1648 0.8715 1.0724 4.1124 -2.2063 0.9928 3.0882 -1.1603 1.2343 -4.7333 -0.8439 0.9886 -3.0347 -0.5519
-3.9611 1.6274 1.3913 -2.5893 3.6508 1.2932 1.1704 -2.5054 -1.0946 1.8099 1.1255 2.1877 -1.5460 -4.5467 1.2366 -0.7637 -6.0162 3.0982 1.4722 -1.5123 1.0436 1.5387 -3.9936 0.7022 -1.5633 1.3885 0.9390 0.5823 -0.3808 0.9269 0.9067 -4.5010 1.9341 0.4962 9.0013 -1.8710 -0.0024 -8.8287 -1.1397 1.0570 8.2276 -2.8154 -0.0932 8.3873 -0.6975 -0.7417 -7.7534 -1.4433 0.4199 2.5377 -2.6167 0.6037 -8.7781 0.2181 0.3110 1.8928 -1.4449 1.0714 6.7876 -2.6522 -0.1051 7.0490 -0.5688 0.4774 3.9832 -2.6378 -0.8854 -6.6694 -0.5039 0.3729 3.9857 -0.2322 0.4977 -7.8204 1.0856 -2.5942 2.1950 1.6952 0.8955 -2.6901 0.2872 -0.1480 1.9259 1.0480 0.8631 0.8638 1.4487 0.2636 2.6426 -0.1987 0.4953 6.1811 -1.5883 0.4783 4.7173 -1.5017 -0.2617 -6.7457 0.6827 -0.5282 -5.4280 1.7884
-0.0122 0.5090 4.1663 1.8913 -0.0148 2.6988 -0.7138 -1.5970 -2.8299 -3.0518 0.5667 1.2793 -2.0136 -5.1506 0.6458 -0.5853 -4.4966 2.6051 -1.7540 -0.8475 -0.8396 -0.7549 -3.1099 -1.0099 0.2630 1.6756 1.9963 -1.2200 0.2726 -0.1093 -0.2902 -3.2578 0.3831 2.7945 5.6538 -3.7760 2.3634 -7.7774 -0.0356 1.5327 6.0720 -3.9752 3.1274 4.9175 -2.5731 1.1146 -8.1325 0.2952 -2.1086 5.4753 0.5506 2.6162 -6.3142 0.0478 -2.1430 4.2728 1.1515 0.5033 5.7666 -2.9992 2.1791 4.6712 -1.6539 -1.1148 5.7504 -0.4718 0.1427 -7.1387 0.6779 -0.3547 3.4783 -0.2665 1.7685 -5.3952 0.3891 0.4312 0.3693 2.7314 -0.6209 -1.6629 -1.4152 -1.1584 2.0015 1.5795 -1.9195 0.8743 0.9130 -1.2134 3.2349 0.7409 0.7930 5.1075 -1.8554 -0.2634 4.7918 -0.8997 0.5026 -5.8452 0.6818 -0.7309 -4.7210 1.1768
-1.6533 3.4629 4.7616 -0.0824 2.0860 6.0626 -1.9577 -1.6378 0.0529 -2.5846 1.0694 1.5979 -2.1306 -5.4535 -1.0479 -0.1211 -6.6834 -0.1939 -1.7617 -1.5156 2.4290 -2.0592 -3.6611 1.2641 0.1477 2.1760 3.6133 -0.9730 -0.3139 2.5255 -1.0096 -4.6879 1.1405 0.5686 5.2746 -4.5883 1.9969 -2.6559 -2.5676 0.4032 5.7984 -3.3617 0.9506 3.8843 -4.7327 2.3251 -3.2237 -1.3993 2.4485 1.1508 0.0820 0.6463 -3.0336 -3.0633 1.6014 1.1790 1.1236 0.6281 4.9782 -2.1860 1.1241 3.1198 -3.6420 2.2343 2.0370 -1.0429 1.4090 -4.1130 -0.7306 0.2682 2.8959 0.0586 -0.2025 -3.8261 -2.4876 -0.8370 2.1939 4.7600 -1.4116 -2.3002 1.1849 -0.5007 2.0459 2.2514 -1.4718 0.8969 2.0923 0.4616 2.0835 1.1145 0.9769 3.6769 -2.2936 1.1829 2.8851 -1.0860 0.2127 -4.3572 -1.2899 -0.8290 -5.4313 -0.4015
0.5856 0.5777 3.9921 0.2477 2.7322 2.8925 0.1568 -3.1696 -2.9012 2.9379 0.8072 -1.3261 -1.2312 -3.3145 1.0323 0.2603 -4.1012 2.8760 1.5781 -1.7165 -1.6760 1.1197 -4.0518 -0.9233 0.9175 0.7033 1.5720 1.1027 -0.5580 -0.9623 1.2183 -3.8327 0.5332 -0.3170 8.6197 -2.0240 -1.3333 -8.5077 0.8992 -1.4640 8.1451 -1.5104 0.8081 7.7257 -2.2145 -0.1460 -8.1654 1.4170 -2.1548 2.5384 -0.5942 -2.1777 -7.3468 0.5104 -1.1113 1.7632 -0.2636 -1.5613 6.7486 -1.1359 0.6989 6.4240 -1.8963 -1.9301 3.9150 -0.9755 0.2201 -6.7790 1.5701 0.4238 3.6123 -0.5572 -1.8817 -6.0911 0.6349 1.0706 1.4649 2.8694 0.5485 -2.8185 -1.5836 1.3336 1.4745 0.3318 1.8922 0.5491 -0.7339 0.2351 2.3167 -0.2378 -0.5395 5.8818 -1.3277 -0.6979 4.4727 -0.9576 -0.6480 -5.8301 1.1835 -0.1617 -4.1892 1.4867
-0.4706 1.0752 4.4415 1.3066 0.0358 3.0864 -0.9280 -1.7500 -2.4911 -3.2558 0.8116 1.3504 -0.9856 -4.5831 1.9947 1.4889 -4.3670 2.3465 -1.8913 -0.8661 -0.5135 -0.7760 -3.0670 -0.5288 -0.0077 1.8901 2.1418 -1.4105 0.3855 0.0126 0.4231 -3.2567 0.3083 3.0105 5.3476 -3.8516 1.2145 -8.4390 -0.6649 1.7494 5.6657 -4.1910 3.2909 4.8353 -2.5254 0.4718 -8.3908 0.4491 -2.0436 5.6959 0.2731 1.6661 -7.1059 -1.1456 -2.1796 4.5325 0.9333 0.6701 5.4744 -3.2394 2.2941 4.6933 -1.6357 -0.9997 5.8489 -0.7231 0.1852 -7.1312 1.0895 -0.3801 3.5515 -0.3487 1.4177 -5.9555 -0.6026 -0.0561 0.6811 3.0457 -0.7466 -1.6655 -1.0861 -1.3564 2.2518 1.5524 -2.1216 1.0860 0.9634 -1.2994 3.4175 0.6258 0.9099 5.0234 -1.9883 -0.1947 4.8169 -1.0595 0.6435 -5.9979 0.5333 0.3607 -4.5442 1.4475
3.4721 -0.6841 1.4093 1.4368 -1.4064 2.5701 -3.4184 -2.6312 0.3138 -1.6380 0.9775 2.9859 2.1114 -3.5674 -1.0338 0.1004 -4.1949 -2.3886 -2.5187 -0.4653 0.6310 -1.4941 -2.1153 -0.9632 1.4218 0.6474 1.1830 -1.3249 0.3270 0.7817 -0.0477 -2.2699 -0.7074 -0.3123 5.0476 -4.7953 -0.3765 -6.9907 1.8623 -0.9413 5.8433 -3.9132 0.5654 3.9973 -4.3199 0.4857 -7.2034 0.8593 0.7640 5.2704 1.6584 -0.9183 -5.6067 1.9046 0.6875 4.0288 2.1698 -0.7586 5.6353 -2.4887 0.7612 3.8340 -3.0009 0.5503 5.4887 0.2384 0.8042 -6.1529 -0.0753 0.1276 3.1322 -0.0016 -0.6392 -4.6360 1.0927 2.2350 -0.2022 2.1290 -2.1912 -1.9182 0.3651 0.4331 1.5433 1.9076 -0.9530 0.9257 1.9672 0.3679 2.9076 1.3032 0.0796 4.6844 -2.0200 0.2178 4.4690 -0.5841 0.2370 -4.9448 0.0808 0.6736 -3.7702 -1.1214
-0.6058 3.2670 5.3458 -2.3936 3.9940 3.8274 -1.3302 -2.9625 3.6774 -2.5673 0.6575 0.3836 2.5237 -3.6584 -0.8141 0.2044 -2.7304 -1.0100 -1.5474 -1.6757 1.7007 -0.4727 -3.8914 1.6736 -0.9291 2.0720 3.2358 -1.0995 -0.3216 1.8857 0.9108 -3.9203 1.1614 0.5328 6.0773 -4.5898 -0.2362 -7.8121 -2.0682 1.2037 4.9139 -4.6318 -0.0965 6.4997 -3.3538 0.9766 -7.6341 -1.5275 2.2790 2.1664 0.3001 -1.0670 -6.5788 -2.1064 1.2565 1.9124 1.1319 1.2812 4.0829 -3.4466 0.0115 5.7432 -2.2476 2.0879 3.0591 -0.8236 1.3845 -6.3384 -1.0443 -0.2174 3.3238 -0.1706 -0.7306 -5.3990 -1.6887 -0.9964 3.4271 3.8952 -0.6611 -2.6239 2.4719 -1.2006 2.0902 1.7434 -1.7128 0.7453 1.2625 -0.0487 2.5066 0.8877 0.7404 4.4718 -2.2689 0.8859 3.6175 -1.0917 0.5337 -5.3057 -1.1561 1.1003 -3.7758 -0.5446
3.0745 -0.2840 2.9176 0.8392 -0.8482 3.7524 -3.3529 -2.7889 0.8375 -2.2668 1.3178 3.0051 1.6276 -3.1039 -2.1707 -0.6043 -4.1126 -2.6910 -2.6434 -0.5300 0.8290 -1.9214 -2.1286 -0.9348 1.1162 0.8654 1.9829 -1.4720 0.2614 1.1012 -0.4534 -2.0960 -1.0911 0.6949 3.7200 -5.0394 0.5905 -6.2845 1.8161 -0.1156 4.6614 -4.5262 1.4408 2.8498 -4.1525 -0.5880 -5.9801 1.2565 0.2126 5.4170 1.2676 1.7561 -5.6333 1.1598 0.0521 4.3111 2.0164 -0.2642 4.7865 -3.0880 1.3305 2.9959 -2.8217 0.3415 5.3085 -0.1751 -0.6552 -5.1044 0.1139 0.0420 2.9309 0.0343 1.7297 -4.8293 0.1435 1.7089 0.2749 3.2396 -2.2452 -1.9566 0.5320 -0.0357 1.8122 2.2698 -1.3808 1.1166 2.1781 -0.0150 3.0086 1.3763 0.4398 4.0051 -2.2393 0.2368 4.1146 -0.7994 0.4797 -4.5741 -0.3695 0.3004 -3.5031 -1.7311
-2.6121 2.3034 4.3483 -0.4658 3.4727 4.6056 -2.2975 -4.1075 3.0411 0.5024 0.0110 2.2651 -0.9844 -2.9377 -2.7927 -0.9428 -5.3391 -2.0984 -1.0720 -2.3659 2.0156 -1.9380 -4.3098 0.7136 -1.0594 2.5341 2.4351 -1.5484 -1.0118 1.8842 -2.0346 -3.5945 -0.5735 3.5285 5.4130 -2.5980 3.1772 -3.4004 0.2738 2.9782 5.4570 -1.3728 3.0085 4.4899 -3.5873 2.3396 -4.3857 0.6229 -1.9362 1.8680 -2.1030 2.6740 -2.5441 -0.8334 -2.0926 1.4219 -0.8449 1.8549 4.5968 -1.0550 1.9892 3.6712 -3.2759 -0.7553 2.6309 -2.4615 1.0836 -4.5571 -0.0610 0.0665 2.3194 -0.2244 1.5368 -2.6502 -1.4460 -1.1654 2.3210 3.9217 -2.2111 -3.3451 1.8449 -1.3916 1.3416 1.5595 -0.6810 0.0629 1.9460 -1.0550 1.6685 0.1404 1.3595 3.7148 -1.9530 0.2299 2.8719 -1.5682 0.7388 -3.6875 -1.0244 -0.8242 -3.9334 -1.7442
-2.8099 2.4579 4.2105 -0.7089 3.7026 4.4922 -2.3274 -3.9741 3.1048 0.4084 0.1824 2.3147 -0.8638 -3.0461 -2.7514 -1.0072 -5.4256 -1.9968 -1.1025 -2.2347 2.0752 -1.8766 -4.2340 0.8014 -1.2086 2.6762 2.3378 -1.6021 -0.8968 1.8798 -1.9443 -3.5635 -0.5110 3.6116 5.3603 -2.6249 3.2909 -3.7895 0.2643 3.1848 4.4053 -3.4687 2.9259 5.5662 -1.3648 2.3732 -4.6808 0.6610 -1.8845 1.8541 -2.2055 2.8464 -2.9235 -0.8605 -2.0857 1.4457 -0.9409 2.0524 3.5737 -3.1094 1.8533 4.8187 -1.0542 -0.7034 2.6275 -2.5406 1.0935 -4.7562 0.0048 0.0310 2.3995 -0.2633 1.6929 -2.9444 -1.4509 -1.3521 2.5080 3.8266 -2.2135 -3.2432 1.8913 -1.4811 1.4491 1.4902 -0.7616 0.1986 1.9459 -1.0928 1.7395 0.0767 1.3770 3.7620 -1.9539 0.2468 2.9007 -1.6187 0.8120 -3.8902 -0.9821 -0.7738 -4.0253 -1.6793
-0.4398 3.3071 5.5101 -2.3582 4.1985 4.2509 -2.3832 -3.3733 2.9017 -3.1840 1.1948 0.7499 1.6185 -5.2813 0.9931 2.7761 -3.4311 -0.2441 -2.2921 -1.4517 1.5110 -0.8801 -3.4341 1.0735 -1.2348 2.1192 3.5151 -1.7807 -0.1880 1.9739 0.5053 -2.9818 0.8421 1.1903 4.8447 -4.6715 -0.4301 -5.4314 -3.7345 0.0542 4.2985 -4.2062 2.3800 4.8439 -3.8437 0.1106 -6.3226 -2.8926 2.0939 1.4726 0.8152 -0.3129 -4.0205 -3.2784 1.0182 1.5313 1.6166 0.0327 3.6788 -2.8948 2.3444 4.3029 -2.6137 2.0964 2.1949 -0.4406 0.7375 -5.8922 -1.6680 -0.0969 3.0414 0.0888 0.2403 -3.5987 -2.1846 -1.0366 3.4796 4.1349 -1.4953 -2.5690 2.1427 -1.4040 2.1927 2.0110 -2.2256 1.0267 1.4993 -0.1419 2.3160 1.2226 1.1264 3.6657 -2.0998 1.0600 2.9795 -0.8108 0.7594 -4.5825 -1.3762 1.5523 -4.1306 0.1068
1.8098 1.7854 4.7126 -0.5603 1.6925 5.3486 -2.3973 -2.9966 1.9807 -3.4113 1.9964 2.0272 0.9750 -2.5153 -2.7985 -1.0822 -3.9442 -2.6947 -2.7033 -0.7294 1.3342 -1.9925 -2.4533 -0.2967 0.0967 1.8130 2.9650 -1.8347 0.3124 1.8151 -0.7618 -2.0464 -1.0015 2.1106 1.4509 -4.4280 2.2627 -6.2077 0.4865 2.1825 0.9391 -3.1879 1.4116 2.7014 -4.6508 2.3485 -6.1849 -0.8502 -0.2570 5.4647 0.1772 1.3388 -5.1863 1.0473 -0.7203 4.7394 1.2105 1.5770 1.6500 -2.0804 0.8231 3.3394 -3.6242 0.2870 4.8001 -0.9938 1.5967 -5.2255 -1.6199 -0.2428 2.6886 0.0254 0.6535 -4.3079 0.3854 0.4242 2.2736 4.3624 -1.8865 -1.9832 1.1325 -1.0939 2.5432 2.3700 -2.2470 1.6044 2.0537 -0.7010 3.2888 1.1384 0.9067 2.8113 -2.2599 0.2998 3.4524 -1.0963 0.8102 -4.3446 -0.9793 -0.0224 -3.2218 -2.0103
3.4285 -0.8605 1.9322 2.3099 1.3270 1.9405 -1.1310 -4.2275 -3.6355 2.2219 -0.2548 -3.2799 -0.7766 -6.1936 0.7803 -3.0232 -5.2728 1.3861 0.3118 -2.4374 -3.0542 -0.5441 -4.0183 -1.3456 1.8015 -0.3245 0.1657 0.4387 -1.2780 -2.2101 -1.8087 -4.3425 -0.6581 0.1014 7.9244 0.2445 0.1212 -1.8892 3.5658 1.1323 7.0689 0.3469 -1.1955 7.4344 -0.1756 -1.0662 -1.7188 2.9697 -1.8811 1.7735 -0.4582 0.7806 -3.1818 3.2365 -0.8558 0.9510 -0.7189 0.9403 5.6588 0.0644 -1.3613 6.1338 -0.4688 -1.6411 3.1944 -0.3451 -1.6115 -2.7399 2.1126 0.6785 2.8134 -0.8832 0.3209 -4.1197 2.4692 2.8791 0.2411 1.0594 -0.8730 -3.2710 -2.6182 1.6085 0.5126 -1.0858 1.4718 -0.3706 -2.3139 0.4778 1.4826 -0.9546 -0.2560 5.1741 -0.3372 -0.4170 3.7331 -0.5434 -0.9110 -3.8678 1.9141 -1.6716 -5.0542 0.8981
-0.2482 4.0632 3.6580 -1.5298 3.0985 5.5115 -2.4474 -3.7443 3.1595 -3.3325 0.6963 0.7176 2.4584 -2.4381 0.1155 0.1575 -1.5855 -0.3920 -2.4696 -1.8602 1.7164 -1.0074 -3.8019 1.2737 -1.3288 1.8406 3.4199 -1.9833 -0.5650 2.1158 0.4457 -3.5471 1.2454 1.3048 4.8325 -4.5218 0.7790 -5.7409 -3.4537 0.1611 4.2024 -4.2040 2.4100 4.8336 -3.5843 1.6747 -5.8626 -2.4648 1.9148 1.0808 0.7316 -0.0859 -4.5363 -3.3395 0.8105 1.0912 1.4942 0.0523 3.4875 -2.9463 2.2907 4.2029 -2.4038 1.9551 1.8660 -0.4834 1.7489 -4.8805 -1.4117 -0.2563 2.6881 0.0195 -0.0449 -3.6332 -2.4108 -1.4552 3.2249 4.0086 -1.6153 -2.9331 2.3473 -1.5836 1.8122 1.9257 -2.3983 0.6016 1.5105 -0.3383 1.8954 1.1053 1.0694 3.4683 -2.0563 0.9343 2.6783 -0.8367 0.9083 -3.8342 -1.4404 1.0495 -2.7014 -0.1265
0.7770 3.2005 2.9505 0.5663 1.4475 4.6434 -3.2184 -2.4829 -1.5306 -4.1530 1.0844 1.7116 0.3045 -6.3075 -0.8923 -0.1320 -5.4154 1.4102 -3.2099 -1.3863 0.5619 -2.2683 -3.6500 0.3341 -0.8098 1.3072 2.6186 -2.4481 -0.1870 0.7837 -1.5557 -4.5761 -0.5673 4.3625 2.3732 -2.3341 2.6757 -1.7235 -0.9874 4.0497 2.4583 -1.0300 3.3302 2.5559 -3.3362 2.2061 -2.5341 -1.9451 -1.6344 4.5411 -0.8990 2.2440 -2.0993 0.3858 -2.1416 3.7891 0.0940 2.6845 2.7417 -0.6347 2.0591 2.7872 -2.9641 -0.3368 4.2185 -1.4660 1.3519 -3.6473 -1.6144 -0.2821 2.2563 -0.0758 1.4849 -3.0955 0.7195 -0.1951 2.2574 3.6210 -2.4447 -2.3137 -0.3520 -1.9149 1.9395 1.7879 -2.9680 0.9100 1.4379 -1.4259 2.6056 0.5411 1.7004 2.8947 -1.5498 0.3429 3.1194 -1.0728 1.0454 -3.8721 -0.3264 -0.0462 -5.1966 -0.0233
-0.8775 3.2552 5.2184 1.1388 1.9304 4.7290 -2.7287 -1.4114 -0.6071 -3.3846 1.3357 2.4139 2.8205 -3.4366 0.0644 1.2642 -2.9026 -1.8218 -1.8864 -0.9328 1.5537 -1.0275 -2.8365 0.2211 -0.1899 2.8294 2.8727 -1.3709 0.3964 1.7572 0.4022 -2.8086 0.5846 3.0729 2.5751 -3.9431 0.4748 -7.9192 -0.6677 1.8517 2.8226 -4.4470 3.3029 2.7024 -2.5179 0.8363 -7.3164 0.4728 -1.9837 5.1778 -0.7164 0.4297 -7.0083 -1.8427 -2.1964 4.4978 0.4241 0.7620 3.1914 -3.5627 2.3003 3.0811 -1.7076 -0.9138 4.7783 -1.6126 1.1486 -5.9090 0.4954 -0.4330 2.9413 -0.1334 0.7033 -5.7415 -1.8583 -0.2603 2.2595 4.2683 -1.5383 -1.4165 0.1661 -1.5039 2.7867 2.1185 -2.1984 1.4410 2.1089 -1.3736 3.3430 0.7416 0.9570 3.3427 -2.2340 -0.1632 3.6822 -1.3643 1.0695 -5.2060 -0.6461 1.4955 -3.5242 -0.5281
-0.9888 5.2371 2.6864 0.1409 4.2632 4.6293 -3.3513 -2.4277 0.8716 -3.6262 0.7459 2.4418 1.7202 -2.3793 -0.2212 1.2059 -2.9619 -2.6074 -1.6866 -1.3454 2.1656 -1.1023 -3.1002 0.5285 -0.8317 2.7573 2.9572 -1.4445 0.0695 2.0412 -0.6777 -3.0033 -0.8810 3.8954 2.7040 -2.7506 2.0578 -7.5248 -0.4762 3.6613 2.9790 -1.4564 2.7826 2.5666 -3.6698 2.9455 -6.5430 -0.2684 -2.3672 4.0112 -1.3455 0.7250 -7.0467 -0.9313 -2.6661 3.5049 -0.1364 2.2988 3.1415 -0.9896 1.5195 2.6831 -3.2242 -1.0415 3.8223 -1.9064 2.5845 -5.1645 -0.4872 -0.4700 2.5097 0.0275 0.3657 -5.8182 -1.1345 -1.0047 4.0833 3.6621 -2.0203 -1.9390 0.8183 -1.9769 2.4284 2.0194 -2.4505 1.0020 2.1913 -1.6715 2.7342 0.5906 1.2412 2.9861 -1.8183 -0.1031 3.0949 -1.2612 1.3330 -4.8752 -0.8777 1.0033 -3.1950 -1.1874
1.7657 1.5143 4.5022 2.9090 3.2356 3.1896 -0.4044 -0.8765 -2.2683 4.1164 -0.2981 -0.3890 -1.3477 -5.9774 -1.3965 -3.5685 -4.8309 -1.2416 1.6075 -1.5139 -1.1873 -0.0702 -3.2067 -1.8457 2.1914 1.0744 2.1380 1.8083 -0.4562 -0.2297 -1.5178 -3.4823 -1.9477 -3.9131 3.5415 -1.4892 -1.3843 -3.6327 3.2551 -3.2391 2.4202 -1.1843 -3.1969 4.7937 -1.6372 -2.2158 -2.9351 2.4695 2.6028 4.3034 -1.4970 -0.7657 -4.8080 2.5853 3.1521 3.3818 -0.6851 -1.8009 2.4694 -1.0218 -1.8661 4.8389 -1.4512 1.1588 4.3840 -1.6404 -2.4463 -3.3339 1.1035 0.9591 2.6451 0.0020 -0.9519 -5.1959 1.3629 2.7424 1.7457 3.3728 0.1292 -1.7990 -1.3286 2.9390 1.3877 0.8536 3.0341 0.1335 0.0010 2.2926 2.4862 0.0696 -1.1079 3.6261 -1.1351 0.3361 3.5919 -0.9178 -1.8187 -4.4221 0.6284 -2.1289 -4.8047 -1.0399
-2.9544 4.5528 3.9881 -3.1063 2.1797 4.6071 2.7121 -1.1585 2.6054 -2.3357 -0.6043 2.0648 -0.8190 -2.6899 -2.1032 -1.3836 -3.5193 0.1938 0.4073 -0.6685 2.8745 1.1858 -2.3301 1.2222 -1.9030 2.8577 2.5507 -0.3211 0.4870 2.4175 0.6956 -2.0467 -0.1400 3.5769 4.3979 -2.5383 2.3099 -6.7437 -1.5943 2.4713 4.8021 -3.1871 3.4868 3.3360 -1.5560 2.4375 -5.5980 -2.2768 -2.4228 1.7791 -2.1617 1.2161 -6.7256 -0.5862 -2.7599 1.6466 -0.8668 1.1849 4.2122 -2.8662 2.3003 2.7630 -1.2934 -1.1166 2.2991 -2.5241 1.5620 -4.4828 -2.0146 -0.6325 2.5646 -0.1802 0.4110 -5.7436 -0.3259 -3.0809 3.1488 3.4492 1.4971 -1.0132 1.8886 -2.2139 1.7394 1.5776 -1.6448 0.4118 2.0370 -1.8160 2.0291 0.1704 1.0748 3.2166 -1.9585 -0.2410 2.7127 -1.5816 0.6079 -4.6095 -1.0779 -0.3856 -3.2025 -0.8141
0.1915 4.4177 2.3253 0.0934 3.5661 4.6141 -1.7866 -3.4463 2.3693 -4.2374 1.0836 2.0167 0.7752 -2.1264 -2.7921 -0.8819 -3.9908 -2.5523 -2.7638 -1.3750 1.7579 -1.7634 -2.8734 0.0656 -1.0977 2.3509 2.8478 -2.2207 -0.0448 1.8297 -0.7886 -2.1444 -0.7683 4.1721 1.9230 -2.1600 3.1192 -5.2825 0.5284 3.7942 2.3934 -0.9594 3.1716 1.6441 -3.1721 3.2466 -3.9764 0.2582 -2.1022 3.7054 -1.6901 1.9183 -5.9115 -0.0836 -2.5707 3.3538 -0.4790 2.3916 2.6445 -0.6945 1.8688 1.8459 -2.9090 -0.7442 3.3607 -2.0748 2.2634 -3.2911 -0.5424 -0.5232 2.1657 -0.0013 1.0223 -5.3292 -0.8174 -0.6938 3.7237 3.3344 -1.6493 -2.3531 1.4774 -2.2189 2.3673 1.8182 -3.0149 1.0801 1.8958 -1.7384 2.5656 0.4149 1.4383 2.3834 -1.6179 0.0453 2.6226 -1.2643 1.2230 -3.9857 -1.0308 0.0608 -3.0666 -1.9443
-4.6054 3.1683 2.6646 -2.8291 4.2720 3.9569 2.1469 -1.4860 3.3185 -2.7612 -0.5596 2.2520 -0.3487 -2.3359 -2.0963 -1.3562 -3.5091 -0.1223 -0.0860 -0.6965 3.2523 0.7386 -2.3631 1.6285 -2.2200 2.8900 2.0298 -0.7153 0.4523 2.6524 0.6796 -1.9821 0.2049 3.4778 5.0159 -2.1454 2.3607 -6.6624 -1.7484 2.5066 4.9216 -3.0696 3.4246 4.1860 -0.9586 1.2534 -6.3776 -2.4466 -1.5838 0.8558 -2.3339 2.6511 -5.6921 -0.6597 -2.1891 0.8478 -1.1329 1.3915 4.0177 -2.8594 2.4112 3.3200 -0.7890 -0.3709 1.6286 -2.5352 0.4592 -5.2178 -2.1272 -0.5119 2.3394 -0.2433 1.9633 -4.6381 -0.3506 -3.1916 3.0323 3.1746 1.0998 -1.1354 2.4276 -2.3501 1.5847 1.2696 -1.9751 0.3729 2.0975 -1.6182 1.6038 -0.0310 1.3286 3.2155 -1.7730 0.1488 2.3872 -1.5449 0.8501 -4.4134 -1.1247 -0.1793 -3.0430 -0.8372
1.8541 2.7328 2.7259 2.5710 0.5641 3.5881 -3.1436 -3.6760 0.9948 -3.1751 0.7690 3.1987 0.6218 -1.9752 -3.1179 -0.7784 -4.0208 -2.7423 -3.0429 -1.3086 1.1636 -2.5839 -2.4958 -0.9799 0.2859 0.7701 2.7673 -1.9832 -0.4460 1.6225 -1.4084 -1.8139 -1.5564 2.7379 1.9312 -3.9935 2.2511 -3.6464 1.4873 1.5837 2.5576 -4.2799 3.0520 1.5927 -2.6202 2.2268 -2.4315 0.9227 -1.4845 4.5143 0.2938 1.4642 -4.6711 0.7494 -1.6298 3.6744 1.3346 0.6537 2.8910 -3.2177 2.2076 1.9400 -1.6352 -0.6161 4.1578 -0.8157 1.4666 -2.1954 -0.2777 -0.2602 2.0243 0.2242 0.7775 -4.4956 -0.3359 1.3947 1.5075 3.4818 -2.4397 -2.5387 0.5233 -0.9998 1.5552 2.5551 -2.1796 0.6016 2.4984 -0.9799 2.3753 1.3042 0.9447 2.6302 -1.9247 -0.0155 2.9488 -0.8751 0.7966 -3.2157 -0.8371 -0.1692 -2.8071 -2.2266
1.1383 1.6959 4.8220 -1.0690 0.6329 4.8725 -1.9338 -3.1089 2.3777 -3.6558 1.3177 2.3612 -0.4674 -3.9656 -3.1065 -0.6291 -5.3028 -0.9909 -2.8857 -1.2320 1.2735 -2.5436 -3.3953 0.0963 -0.2056 1.6216 2.7748 -2.0612 -0.0588 1.3909 -1.9153 -3.0860 -1.2035 3.8038 1.5324 -3.3436 3.1932 -1.9921 -0.1117 2.6775 1.7921 -4.0297 3.8348 1.7296 -1.9086 3.2438 -3.0525 -0.9290 -1.5929 4.3881 -0.9641 1.8120 -1.5596 0.2262 -1.9013 3.8223 0.2169 1.4873 2.2413 -3.3315 2.7431 2.1848 -1.2722 -0.4437 3.9195 -1.7197 2.0343 -3.6809 -1.3990 -0.1218 2.2141 -0.0570 0.7072 -2.0840 -0.2011 -0.2680 1.7658 4.2753 -1.9988 -2.4422 1.1304 -1.4340 2.1695 2.0673 -2.5129 1.1115 1.9608 -1.1207 2.6969 0.7033 1.4978 2.4577 -1.9980 0.2788 2.8556 -1.3048 0.8477 -3.1760 -1.0230 -0.5390 -4.0127 -1.6550
1.8138 2.6646 5.5601 0.6650 0.5186 5.2445 3.5140 -3.3855 1.1876 -0.7287 -0.4743 1.7932 0.1066 -4.4283 -2.6944 -0.8418 -2.1310 -2.9992 1.5343 -2.2344 1.7999 1.7331 -3.4058 -0.3722 1.6478 1.7078 3.3004 1.5540 -0.8112 2.0161 0.9835 -2.4890 -1.2522 -2.5996 4.5793 -3.9540 -3.4264 -4.1496 1.0313 -2.8333 3.4914 -3.2002 -1.3251 5.2629 -3.8549 -2.3896 -4.9632 0.7907 2.6826 2.3268 -0.8869 -3.4404 -2.9253 0.1867 2.3896 1.9416 0.3661 -1.8039 2.9944 -2.3072 -0.3872 4.8189 -3.0006 1.6447 2.8798 -1.7332 -1.4129 -4.6329 -0.2168 0.0940 2.6577 0.1006 -2.5758 -2.5931 -0.7200 0.9372 1.8687 4.6242 2.4640 -2.5881 0.6634 0.6742 1.4355 2.1719 0.4092 -0.0444 1.9689 1.0323 2.0774 0.8732 -0.6131 3.6224 -2.1837 0.3874 3.0702 -1.2756 -1.5526 -3.4919 -0.9108 -0.3369 -3.1701 -2.1168
-2.4296 5.1258 3.7502 -3.5487 2.9841 4.1900 1.1583 -1.9180 2.7583 -3.4157 0.0998 1.6741 -1.5380 -3.9646 -2.0988 -1.0923 -5.4201 -0.1074 -0.9952 -0.9258 2.8209 -0.5720 -2.9952 1.5501 -1.8707 3.1684 2.3767 -1.2006 0.3973 2.2925 -1.0790 -2.8644 0.1709 4.5376 2.6332 -1.7350 3.5889 -3.8988 -1.8314 3.7706 3.4049 -2.5241 3.9159 1.6817 -0.8357 2.7105 -2.9765 -2.2469 -1.9801 2.3953 -2.4171 2.9808 -4.9917 -1.0261 -2.5465 2.3816 -1.1975 2.3247 3.3214 -2.4358 2.5772 1.5770 -0.7895 -0.5343 2.3999 -2.5486 1.3100 -3.0971 -1.9274 -0.3719 2.4472 -0.1468 1.7296 -5.1288 -0.7168 -2.9840 3.8762 3.1103 0.0067 -1.6671 1.9690 -2.4065 2.2439 1.3025 -2.4098 0.7997 1.7646 -1.7089 2.3792 -0.0097 1.7197 2.4403 -1.6081 0.2680 2.4516 -1.4623 0.8965 -4.1479 -1.2004 -0.8112 -4.2122 -0.8650
-0.9548 3.6124 4.9947 0.7102 1.8266 5.3132 -3.9135 -2.4086 1.4538 -3.2881 0.8724 2.6418 -0.5914 -3.2016 -3.3268 -0.8460 -5.1123 -1.7283 -1.8292 -1.5639 2.2039 -1.9715 -3.1644 0.3192 -0.1398 2.2916 3.0583 -1.3357 -0.2212 2.0271 -1.7969 -2.8179 -1.1043 3.6815 1.0930 -3.4640 3.3308 -2.4595 -0.1109 2.4383 0.7745 -3.8636 3.8706 1.9374 -2.3008 2.4808 -1.5610 -0.6258 -1.6646 3.9935 -1.1002 2.8507 -3.8642 -0.2036 -1.9245 3.5416 0.1389 1.2895 1.2680 -3.1262 2.8050 2.4087 -1.6316 -0.5227 3.4812 -1.8350 1.2321 -1.9788 -1.2127 -0.0258 2.0460 0.0373 1.7361 -4.2748 -0.7221 -0.5022 2.2526 4.5234 -2.6348 -1.9939 1.0007 -1.3530 2.1922 2.1602 -2.1078 0.8887 2.2997 -1.0667 2.5339 0.7390 1.4426 2.0735 -2.0519 0.2705 2.5195 -1.3138 0.9266 -3.2863 -1.2291 -0.5961 -3.6989 -1.9606
-4.1313 3.1078 3.3920 -2.0505 3.9964 4.3570 -1.1115 -2.9985 1.7444 -3.0671 -0.3200 1.9349 2.0669 -5.2772 1.0152 3.4360 -4.0821 -0.7151 -0.4404 -1.0115 2.8502 1.2064 -2.7216 2.1511 -1.9980 2.9937 2.1173 -0.8367 0.2356 2.2452 2.0944 -2.7061 0.9724 4.2412 4.0912 -1.8329 -1.2646 -4.3149 -2.7828 3.4305 4.4781 -0.8334 3.7482 3.1797 -2.8471 -0.6657 -5.4311 -2.3469 -1.9825 2.1726 -2.5114 -0.6612 -3.0620 -2.2550 -2.4963 1.8808 -1.3033 2.0663 3.9912 -0.7831 2.4930 2.7036 -2.7757 -0.5964 2.5880 -2.6327 0.4473 -5.3616 -1.4327 -0.3506 2.2672 -0.2617 0.3448 -2.9631 -1.4443 -2.6377 2.9153 3.4825 -0.0810 -2.0231 1.7880 -2.3262 1.8321 1.2003 -2.1290 0.4666 1.8227 -1.6507 1.9482 -0.1239 1.5880 3.1217 -1.7023 0.2195 2.6355 -1.5565 0.8710 -4.1583 -1.0138 2.2238 -4.1743 0.0811
-1.9873 5.0275 3.9049 -2.4447 2.8221 4.8794 1.6343 -2.1636 2.8243 -3.0969 -0.1594 2.5615 1.8402 -1.4923 -0.9506 -0.0839 -1.8132 -2.5156 -0.4393 -1.0682 3.1644 -0.1055 -2.6313 1.2843 -1.5436 3.0076 2.5810 -0.8389 0.2769 2.8435 -0.4823 -2.0334 -0.0106 3.5600 3.7574 -2.7912 1.6307 -6.6089 -1.4931 2.4620 3.8850 -3.5556 3.4936 2.9977 -1.5588 2.1827 -5.8018 -0.5774 -2.3638 1.0971 -1.8903 0.6988 -5.9168 -2.4232 -2.7302 1.2783 -0.6097 1.2033 3.3113 -3.1176 2.3361 2.4299 -1.1807 -1.0500 1.5208 -2.3373 1.8666 -4.3958 -0.5499 -0.5976 2.2901 -0.1013 0.3785 -4.6610 -2.4153 -2.4661 3.6284 3.6023 0.5447 -1.5698 2.1371 -2.2365 1.9326 1.7653 -2.1176 0.5697 2.4186 -1.7956 1.8638 0.3391 1.1136 2.5969 -1.9731 -0.1878 2.1359 -1.4980 0.9957 -3.9048 -1.4464 0.6269 -2.2086 -1.3101
-1.0209 3.0984 4.7219 -2.9898 1.6902 4.3325 -3.0365 -3.4672 1.9753 -4.4918 1.3803 0.9212 2.1353 -0.9277 0.1737 0.2781 -1.2293 -1.4921 -3.2821 -1.2454 1.1747 -1.3324 -2.6567 0.5391 -1.4639 2.2447 2.4643 -2.6165 0.0296 1.1075 -0.0120 -2.1147 0.9135 4.4861 1.2260 -1.7356 2.7597 -5.7641 -1.5017 4.0721 1.9918 -0.7117 3.5595 0.8785 -2.7957 2.0080 -5.0641 -2.3620 -1.5400 3.7725 -2.1653 2.9446 -5.1023 -0.1822 -2.2018 3.4863 -1.0300 2.6986 2.4533 -0.6660 2.2807 1.2904 -2.7381 -0.1858 3.2868 -2.3623 1.4643 -3.7813 -1.9913 -0.3483 2.1526 -0.2432 2.4666 -3.9557 0.1876 -2.1073 2.7579 3.7299 -2.3047 -2.3005 1.6396 -2.3514 2.4171 1.2436 -3.2819 1.2333 1.0714 -1.5809 2.6452 -0.0187 1.8055 2.1091 -1.6208 0.4157 2.5055 -1.4394 1.7118 -3.3060 -0.7615 1.0614 -1.7346 -0.3781
1.0414 2.7749 5.5634 0.1073 0.5049 5.4198 2.7060 -4.0753 2.2401 -1.1447 -0.5569 1.8614 0.2324 -4.6363 -2.4094 0.3170 -2.2382 -3.1253 0.9336 -2.5007 2.2075 1.4963 -3.8571 0.2141 1.2316 1.5112 3.4576 1.0888 -1.0693 2.2114 1.3791 -2.8979 -0.9009 -1.8826 4.5312 -4.2443 -3.7506 -2.5611 0.0912 -2.1968 3.3573 -3.6703 -0.6749 5.2275 -3.8458 -3.0593 -3.7003 0.2287 2.8057 1.8599 -0.6050 -3.1034 -1.5674 -0.8069 2.3372 1.5207 0.6076 -1.3187 2.7835 -2.6685 0.1216 4.7066 -2.8964 1.9271 2.4939 -1.5681 -1.8124 -3.8932 -0.4684 0.1601 2.4304 0.0735 -1.9784 -1.7016 -1.4363 0.3543 1.7842 4.6568 2.0531 -3.1273 1.4114 0.3943 1.2438 2.2259 0.0162 -0.2153 2.0744 0.9496 1.7882 0.9547 -0.1933 3.4191 -2.2727 0.6464 2.7939 -1.2593 -1.3453 -2.9087 -1.2530 0.1614 -3.2248 -2.0689
-2.6056 3.9226 2.4743 -4.5485 3.4089 1.0562 -2.0141 -3.0880 3.5918 -2.9772 -0.9880 -1.0114 1.2407 -6.0548 0.5426 2.6408 -4.2333 1.5497 -1.9074 -2.1462 1.3992 0.1683 -2.9147 2.5977 -2.6450 1.8417 1.1849 -1.8882 -0.7585 1.0193 0.1025 -4.2556 1.9795 4.4560 4.2213 0.4644 0.3895 -2.0710 -2.6304 3.8665 4.8641 -0.5581 3.8950 2.9767 0.9508 -0.3277 -3.1622 -2.3306 -0.5821 2.2802 -3.2353 1.5439 -1.8374 -1.7219 -1.5697 1.8254 -2.4444 2.6608 4.3222 -1.1556 2.8022 2.4578 0.3659 0.6821 2.6919 -2.6543 0.0268 -3.9892 -1.2050 -0.1900 2.1196 -0.4836 1.8970 -2.5645 -0.7088 -3.0492 3.2939 1.1747 -1.2097 -2.3090 2.7275 -2.5201 1.2292 -0.1994 -2.4965 -0.2873 -0.1236 -1.3607 1.7150 -1.0089 2.1345 3.1469 -0.7428 0.8828 2.6629 -1.3178 1.1005 -3.6591 -0.4692 1.4019 -4.6618 0.9227
0.9844 -1.1689 3.2925 3.1510 -0.2049 3.8945 1.6962 -2.4153 -3.2852 4.4584 0.4919 0.0823 -2.5806 -2.1645 -1.2682 -2.3824 -0.9499 0.9100 2.6220 -1.1153 -1.5186 0.5163 -2.4239 -1.2304 1.7147 0.8786 2.1923 2.3376 0.0562 -0.7268 -0.2769 -1.5069 -0.3919 -3.9922 2.7081 -2.4135 -1.7442 -5.7917 2.3724 -3.1760 1.7024 -2.0562 -3.5725 4.0820 -2.2177 -1.1908 -4.6596 2.8264 1.9824 4.7691 -0.6963 -2.3692 -5.6606 1.0295 2.5785 3.8387 0.0713 -1.8667 2.0021 -1.5131 -2.3697 4.3508 -1.6803 0.6209 4.5673 -1.1616 -1.2290 -3.4536 2.0369 0.5533 2.5249 0.0986 -2.4213 -4.5940 0.2948 2.1914 -0.4371 2.7523 1.3476 -1.5931 -2.1834 2.5954 1.5564 1.1606 3.2386 0.6311 0.1386 1.8428 2.6502 0.4663 -1.4433 3.2733 -1.3231 -0.1023 3.4902 -0.7811 -1.8342 -3.4757 0.8383 -1.8805 -1.9585 -0.0103
-2.7576 4.8479 0.2276 -2.9205 5.4432 2.5971 1.0083 -1.7295 3.4598 -3.7615 -0.0853 2.1804 -0.9045 -2.2617 -2.2581 -1.3394 -4.1036 -0.6162 -1.1770 -0.8300 3.2536 -0.2619 -2.4008 1.5797 -2.3833 3.1272 1.9931 -1.6080 0.4753 2.8184 -0.4366 -1.8521 0.2228 4.4891 1.9307 -0.8561 3.7721 -4.2827 -1.6165 3.7394 1.5979 0.2077 3.8576 2.1351 -2.1449 3.3954 -3.0069 -1.7755 -1.8853 1.4509 -2.3959 2.6584 -5.2002 -1.2554 -2.6108 1.5344 -1.2664 2.3061 1.4533 0.0586 2.5237 2.0250 -2.2694 -0.4337 1.4779 -2.3362 2.0190 -2.6174 -1.5957 -0.5939 1.7275 0.0439 1.4123 -4.8853 -1.0882 -3.1785 4.3479 1.5901 0.0664 -1.2573 2.5087 -2.7814 1.8824 1.2222 -2.7797 0.6512 2.1093 -1.9356 1.6658 0.0125 1.6823 1.6727 -1.1221 0.2216 1.6114 -1.1617 1.1154 -3.5548 -1.2661 -0.5179 -2.9901 -1.0612
-2.2796 2.5369 4.6050 -4.2862 2.1738 3.2280 0.2498 -2.6732 3.8223 -3.3630 -0.6400 0.8014 1.9198 -5.1405 -0.5529 3.2217 -3.0018 -0.4324 -0.9394 -1.6787 1.9982 1.5358 -2.1047 1.8649 -1.9757 2.3920 2.1822 -1.3843 -0.3090 1.9577 1.4259 -3.4827 1.3433 4.6325 2.0572 -1.5504 -1.3322 -1.6800 -2.5816 3.9835 3.0259 -2.2186 3.8784 1.0741 -0.7993 -1.5605 -2.7772 -1.8479 -1.8045 2.9142 -2.4416 0.0956 -1.2630 -2.6126 -2.4732 2.5304 -1.3392 2.5344 3.0856 -2.1858 2.5356 1.1155 -0.7977 -0.3629 2.7555 -2.5158 -0.4846 -3.4256 -1.1428 -0.4084 1.8371 -0.2991 1.0873 -1.8228 -1.9945 -2.9268 2.8222 3.2707 0.3650 -1.7562 2.7524 -2.5263 1.6075 1.0058 -2.4807 0.1014 1.2292 -1.7478 1.9449 -0.2262 1.8031 2.1565 -1.5295 0.3455 2.2630 -1.4752 0.7566 -2.9234 -1.2421 1.9654 -3.7150 -0.2760

>  <OB_ATOM_TYPES> (1bgoA1)
C.3 C.3 O.3 O.2 O.2 O.2 C.3 C.3 C.3 N.am N.3 C.ar C.ar C.ar C.ar C.ar C.ar C.ar C.ar C.ar C.ar C.ar C.ar C.ar N.ar C.3 C.3 C.3 C.2 C.ar C.ar C.ar C.ar S.O2

>  <ENSEMBLE_RMSD> (1bgoA1)
1.839 1.946 2.052 2.089 2.137 2.166 2.263 2.277 2.287 2.362 2.379 2.394 2.448 2.566 2.641 2.743 2.753 2.761 2.905 2.924 2.971 3.008 3.011 3.160 3.187 3.238 3.472 3.476 3.494 3.503 3.541 3.568 3.603 3.624 3.700 3.748 3.761 3.790 3.883 3.907 3.929 3.932 4.034 4.065 4.076 4.107 4.129 4.167 4.422 4.717

$$$$
