
 OpenBabel03071213D

 25 28  0  0  0  0  0  0  0  0999 V2000
   -0.5830    9.6050   27.9020 N   0  0  0  0  0
    8.5510   10.6150   30.3030 F   0  0  0  0  0
   -2.2560   14.0530   31.0450 C   0  0  0  0  0
   -2.1910   15.6130   28.9920 C   0  0  0  0  0
   -0.7150   13.9340   31.0480 C   0  0  0  0  0
   -0.6460   15.4360   28.9680 C   0  0  0  0  0
   -2.7750   15.2930   30.3480 N   0  0  0  0  0
    1.7370    9.2020   30.4730 C   0  0  0  0  0
    2.2980   15.0140   29.6890 C   0  0  0  0  0
    2.2910   10.5090   30.5950 C   0  0  0  0  0
    6.5890   11.0630   29.0130 C   0  0  0  0  0
    6.9400   12.1690   31.1760 C   0  0  0  0  0
    5.3620   11.7460   28.8610 C   0  0  0  0  0
    5.7110   12.8560   31.0300 C   0  0  0  0  0
    0.7740    8.9170   29.5640 N   0  0  0  0  0
    3.6240   14.7740   29.7430 N   0  0  0  0  0
    0.7890   11.1550   28.7880 N   0  0  0  0  0
   -0.1460   14.1020   29.6150 C   0  0  0  0  0
    1.3580   13.9970   29.6610 N   0  0  0  0  0
    0.3490    9.8990   28.7720 C   0  0  0  0  0
    7.3730   11.2740   30.1640 C   0  0  0  0  0
    4.8890   12.6620   29.8690 C   0  0  0  0  0
    1.7660   11.5090   29.6870 C   0  0  0  0  0
    3.6470   13.3730   29.7540 C   0  0  0  0  0
    2.2430   12.8750   29.6980 C   0  0  0  0  0
  1 20  1  0  0  0
  2 21  1  0  0  0
  3  5  1  0  0  0
  3  7  1  0  0  0
  4  6  1  0  0  0
  4  7  1  0  0  0
  5 18  1  0  0  0
  6 18  1  0  0  0
  8 10  1  0  0  0
  8 15  2  0  0  0
  9 16  2  0  0  0
  9 19  1  0  0  0
 10 23  2  0  0  0
 11 13  2  0  0  0
 11 21  1  0  0  0
 12 14  1  0  0  0
 12 21  2  0  0  0
 13 22  1  0  0  0
 14 22  2  0  0  0
 15 20  1  0  0  0
 16 24  1  0  0  0
 17 20  2  0  0  0
 17 23  1  0  0  0
 18 19  1  0  0  0
 19 25  1  0  0  0
 22 24  1  0  0  0
 23 25  1  0  0  0
 24 25  2  0  0  0
M  END
>  <MOLID> (1bl7A1)
1bl7A1

>  <SMILES_CANONICAL> (1bl7A1)
Nc1nccc(n1)c1n(cnc1c1ccc(cc1)F)C1CCNCC1	

>  <FINGERPRINT> (1bl7A1)
0000000000000001100000000000001000000001000000010000110000000001000000000001000000000001000000000000001000000101000001100001000000100001100010000000000001000100000000000000000101100000000110000000000000000000001000100000000000000000000110000001000000000000000000000010000000000001000000000000000000000000000010011100000000000000001100001000000010001100011100000000000110001000000100000000011100000000000100000000001000000001101101000001000000000000111000000000001000000000100000001000000000001100100000000000010000000000000100101000000000000000100100100000000000100000000000000000010001000000000000000000100001000000001100000000001000000001100000000001100000000000000000000001110000000010000000000000000000100011100000000010100001000000000000000101000000000001000100000000000000000100000000000000001111000001000010000000000000000000000000000000000000000010000001000001000000000000000000000110000100000000000000110100000000001101000000000100011010000000000100000100000000001000000110000000010000100000000000000000001010101000

>  <MACCS166> (1bl7A1)
000000000000000000000000100000000000000001001000010000000000010010000000001111110111111000100001011100010110001000000111110010001010111011000101101101101001010010101000

>  <OB_MW> (1bl7A1)
338.166

>  <OB_logP> (1bl7A1)
3.5629

>  <OB_PSA> (1bl7A1)
81.65

>  <OB_MR> (1bl7A1)
98.1441

>  <OB_ATOMIC_CHARGES> (1bl7A1)
-0.0860483225 -0.2041718341 0.0906318107 0.0906318107 0.0414384016 0.0414384016 -0.2179191071 0.1035286618 0.1784917721 0.0414360186 0.0296865581 0.0296865581 0.0038503572 0.0038503572 -0.2095580928 -0.2238827453 -0.2095727614 0.0898946738 -0.3096422354 0.2566559549 0.140145031 0.0193214018 0.1030639643 0.1002049147 0.0968384506

>  <MCT_HBD> (1bl7A1)
2

>  <MCT_HBA> (1bl7A1)
6

>  <ENSEMBLE_TOTAL> (1bl7A1)
40

>  <ENSEMBLE_COORDS> (1bl7A1)
-2.8622 -2.8608 -1.8883 6.2718 -1.8508 0.5127 -4.5352 1.5872 1.2547 -4.4702 3.1472 -0.7983 -2.9942 1.4682 1.2577 -2.9252 2.9702 -0.8223 -5.0542 2.8272 0.5577 -0.5422 -3.2638 0.6827 0.0188 2.5482 -0.1013 0.0118 -1.9568 0.8047 4.3098 -1.4028 -0.7773 4.6608 -0.2968 1.3857 3.0828 -0.7198 -0.9293 3.4318 0.3902 1.2397 -1.5052 -3.5488 -0.2263 1.3448 2.3082 -0.0473 -1.4902 -1.3108 -1.0023 -2.4252 1.6362 -0.1753 -0.9212 1.5312 -0.1293 -1.9302 -2.5668 -1.0183 5.0938 -1.1918 0.3737 2.6098 0.1962 0.0787 -0.5132 -0.9568 -0.1033 1.3678 0.9072 -0.0363 -0.0362 0.4092 -0.0923
-2.7079 -2.8433 -2.1206 6.1600 -1.7300 0.4126 -4.3403 1.8345 1.3568 -4.3534 2.6567 -0.8660 -2.8284 1.7179 1.3706 -2.8433 2.5583 -0.9762 -4.7537 2.9430 0.5058 -0.7328 -3.1605 0.7881 -0.0356 2.5974 -0.0227 -0.1546 -1.8227 0.9745 4.2369 -1.1961 -0.9212 4.4651 -0.4411 1.3745 3.0504 -0.5729 -1.0360 3.1785 0.2165 1.2454 -1.5222 -3.4907 -0.1784 1.2470 2.2721 -0.0086 -1.2602 -1.3275 -1.1023 -2.3041 1.4994 -0.0339 -0.8651 1.4871 -0.0299 -1.8088 -2.5180 -1.1211 4.9630 -1.1171 0.3281 2.4837 0.1746 0.0871 -0.4710 -0.9935 -0.0287 1.2264 0.8779 0.0113 -0.0294 0.3777 -0.0093
-2.9447 -3.1120 -2.0091 6.0656 -1.4212 0.8563 -3.1125 2.4201 1.7836 -3.3993 3.5354 -0.2794 -2.9636 1.0650 1.1219 -3.2355 2.2596 -1.0858 -4.0157 3.2606 1.0106 -0.6360 -3.3033 0.6534 -0.3423 2.4525 -0.3387 -0.0991 -1.9390 0.7519 4.4012 -0.7919 -0.7550 4.1123 -0.3874 1.6187 3.1980 -0.2520 -1.0211 2.8152 0.1927 1.3217 -1.5228 -3.6813 -0.2051 0.9566 2.2359 -0.2205 -1.3701 -1.5654 -1.2518 -2.5117 1.1704 -0.3205 -1.0764 1.2785 -0.4163 -1.9249 -2.7492 -1.1466 4.8683 -0.8527 0.6129 2.3495 0.2604 0.0546 -0.5057 -1.1614 -0.2606 1.0495 0.8452 -0.1783 -0.1559 0.2403 -0.2965
-0.4975 -3.7820 -2.3032 5.7856 -1.9413 0.2580 -4.2864 2.4234 1.5479 -3.5654 3.6226 -0.4405 -2.9135 1.7879 1.4922 -3.2676 2.2304 -0.9612 -4.3768 3.6486 0.7676 -1.3731 -2.9810 1.0226 -0.3392 2.5683 -0.0913 -1.0742 -1.5468 1.1380 4.1579 -0.8486 -1.1270 4.0123 -0.8293 1.2958 3.0026 -0.1664 -1.2276 2.7733 -0.0844 1.1779 -1.1933 -3.6851 -0.0439 0.9555 2.2920 -0.0966 -0.4409 -1.7443 -1.1743 -2.5575 1.3840 0.0754 -1.1300 1.4274 -0.1138 -0.7042 -3.0289 -1.1613 4.6662 -1.1946 0.1831 2.2591 0.2288 -0.0309 -0.6252 -1.0338 -0.0143 0.9840 0.8990 -0.0856 -0.2517 0.3542 -0.0872
-1.7107 -3.0174 -2.4388 5.6958 -1.9852 -0.3452 -3.5077 3.6036 0.6138 -3.5625 2.3064 -1.3567 -3.1742 2.4089 1.4962 -3.2198 1.0265 -0.6138 -4.3405 3.1992 -0.5101 -0.7125 -3.2891 0.9302 -0.3719 2.5398 0.6620 -0.3903 -1.9087 1.3275 3.8263 -0.8445 -1.3453 4.3245 -0.6868 1.0366 2.7088 -0.1166 -1.1829 3.1140 0.1005 1.1915 -1.0804 -3.6492 -0.2536 0.9265 2.3287 0.5131 -0.8825 -1.4038 -0.9751 -2.5531 1.2612 0.7292 -1.1177 1.3711 0.6197 -1.2125 -2.6511 -1.2026 4.6461 -1.1532 -0.1836 2.2915 0.3293 0.1432 -0.5066 -1.0558 0.2985 1.0082 0.9433 0.3842 -0.1988 0.3430 0.4621
-3.1772 -2.5684 -1.8404 6.1993 -1.7054 0.3406 -4.3757 2.0341 1.3425 -4.3290 2.4093 -0.9926 -2.8688 1.8761 1.4161 -2.8181 2.2969 -1.0494 -4.7425 2.9697 0.2874 -0.4440 -3.3243 0.2571 -0.0622 2.5580 0.2690 0.1264 -2.0068 0.5711 4.3052 -0.8156 1.5123 4.4650 -0.7567 -0.9087 3.1168 -0.1875 1.4725 3.1791 -0.0829 -0.9433 -1.4706 -3.5142 -0.5020 1.2262 2.2589 0.2794 -1.4598 -1.2109 -1.0428 -2.3044 1.4307 0.0828 -0.8654 1.4390 0.1130 -2.0133 -2.3970 -1.1134 4.9977 -1.0988 0.2746 2.5108 0.1987 0.1961 -0.4260 -1.0252 -0.1550 1.2374 0.8736 0.1183 -0.0069 0.3488 0.0147
-0.4117 -3.4796 -2.5203 6.0407 -1.5011 -0.2950 -3.5219 3.5496 1.1645 -3.5233 2.9156 -1.0965 -3.1808 2.1564 1.6567 -3.1975 1.4677 -0.7937 -4.3446 3.4767 -0.0340 -1.7232 -3.1374 0.7392 -0.3656 2.4477 0.6034 -1.3154 -1.7841 1.1443 3.7414 -1.4331 -0.9784 4.6034 -0.0025 0.7786 2.5186 -0.8886 -0.8515 3.2677 0.5420 0.9359 -1.4502 -3.6753 -0.4022 0.9211 2.1733 0.4688 -0.5188 -1.6213 -1.1172 -2.5935 1.2687 0.5796 -1.1571 1.3145 0.5384 -0.7855 -2.8876 -1.3272 4.8195 -0.9521 -0.1436 2.2402 0.1412 0.1529 -0.7202 -1.1190 0.1456 0.9496 0.7835 0.3141 -0.2930 0.2449 0.3374
-0.5141 -3.5455 -2.5161 5.9427 -1.9325 0.1716 -4.3859 1.8502 1.4812 -4.3971 3.0652 -0.5493 -2.8868 1.6363 1.4194 -2.9022 2.8928 -0.7374 -4.7339 3.1247 0.8671 -1.5987 -2.8381 0.7687 -0.0982 2.6577 0.1678 -1.2133 -1.4368 0.9781 3.6786 -1.7397 0.9433 4.6386 -0.1697 -0.6370 2.5199 -1.0572 0.9545 3.3695 0.5330 -0.6497 -1.3822 -3.5028 -0.3163 1.1670 2.2789 0.2427 -0.4491 -1.5588 -1.2997 -2.4004 1.6553 -0.0173 -0.9614 1.5945 -0.0499 -0.7743 -2.8280 -1.3624 4.7736 -1.2640 0.1268 2.3330 0.1328 0.1203 -0.6601 -0.8973 -0.1163 1.1026 0.8938 0.0819 -0.1679 0.4551 -0.0717
-0.8802 -3.5660 -2.7508 6.0478 -1.4663 0.4022 -3.3387 2.6626 1.8797 -3.3653 3.7066 -0.2365 -3.2157 1.2741 1.2832 -3.2248 2.3891 -0.9780 -4.1133 3.5250 0.9990 -1.4611 -3.1516 0.7074 -0.4194 2.4725 0.0767 -1.1080 -1.7489 0.9657 3.6768 -1.7339 0.6655 4.6559 0.3247 -0.1587 2.4430 -1.2032 0.5940 3.3165 0.8684 -0.2666 -1.3894 -3.7259 -0.4463 0.8702 2.1990 0.1592 -0.6443 -1.6860 -1.3944 -2.6340 1.2894 -0.1166 -1.1945 1.3372 -0.0859 -0.9632 -2.9526 -1.5137 4.8175 -0.9285 0.2898 2.2245 0.1626 0.1082 -0.7106 -1.1179 -0.1472 0.9226 0.8056 0.0482 -0.3122 0.2643 -0.0841
-1.4566 -3.1161 -2.3507 5.9212 -2.0433 -0.4165 -4.2656 3.2105 0.7437 -4.4954 1.1854 -0.4623 -2.7516 3.1434 0.6784 -2.9944 1.0466 -0.6162 -4.8613 2.5953 -0.4354 -1.4135 -2.8289 1.1688 0.0446 2.6960 0.4623 -0.8618 -1.4894 1.4143 4.5484 -0.1898 -1.0750 3.9412 -1.6512 0.7635 3.4162 0.5180 -0.9167 2.7421 -0.8552 0.9513 -1.6071 -3.3407 -0.0002 1.3100 2.3126 0.4273 -0.7218 -1.3772 -0.9856 -2.2759 1.7069 0.5472 -0.8444 1.6346 0.3623 -1.2461 -2.5736 -1.0958 4.8034 -1.3199 -0.2095 2.4513 0.1805 0.1338 -0.5544 -0.8590 0.2737 1.2259 0.9248 0.3237 -0.0546 0.4900 0.3136
-2.2821 -3.1540 -2.3125 5.9228 -1.7678 0.6827 -3.4968 1.4386 1.5597 -3.3318 3.5010 0.4192 -3.2135 0.6485 0.2986 -3.0081 2.8247 -0.9015 -4.2076 2.6650 1.2271 -1.0645 -2.9453 0.9959 -0.1835 2.6141 -0.4723 -0.4875 -1.5964 1.0801 4.2267 -0.3043 1.5426 4.1632 -1.1568 -0.7291 3.0690 0.3538 1.3543 2.9228 -0.4301 -0.9283 -1.6343 -3.4361 -0.0535 1.1012 2.3328 -0.3315 -1.0455 -1.4852 -1.2577 -2.4045 1.4445 -0.7110 -1.0019 1.4971 -0.3518 -1.6343 -2.6549 -1.1969 4.7787 -1.0910 0.4613 2.3684 0.2905 0.0705 -0.5305 -0.9605 -0.0981 1.1077 0.9515 -0.1597 -0.1342 0.4203 -0.1882
-0.9222 -3.5166 -2.4992 5.8862 -1.9975 0.3207 -4.2146 2.0445 1.6654 -4.4870 2.8558 -0.5431 -2.7205 1.8652 1.4821 -3.0115 2.6892 -0.8552 -4.6865 3.1678 0.8662 -1.3427 -2.8884 0.9509 -0.0976 2.6540 -0.1443 -0.9464 -1.4822 1.1122 4.3521 -0.4359 1.3026 3.9703 -1.4148 -0.8849 3.2001 0.2534 1.2224 2.7441 -0.6437 -0.9744 -1.3399 -3.5298 -0.1695 1.1755 2.2909 -0.1274 -0.6554 -1.5522 -1.2757 -2.3899 1.6204 0.0224 -0.9626 1.5687 -0.1613 -0.9632 -2.8260 -1.3012 4.7379 -1.3014 0.2096 2.3452 0.1574 0.0375 -0.6270 -0.9177 -0.0588 1.1134 0.8987 -0.0938 -0.1577 0.4403 -0.1032
-2.1378 -3.4146 -2.4333 6.0480 -1.4360 0.6418 -3.1334 2.6186 1.8117 -3.3640 3.6300 -0.3077 -3.0508 1.2228 1.2258 -3.2684 2.3033 -1.0402 -3.9953 3.4583 0.9925 -0.8704 -3.2593 0.8585 -0.3839 2.4398 -0.3711 -0.4807 -1.8513 1.0276 4.4375 0.2441 1.2206 3.9819 -1.4515 -0.4530 3.2120 0.7709 1.0518 2.6777 -0.8481 -0.6578 -1.3620 -3.7624 -0.2241 0.9130 2.1920 -0.3108 -1.1422 -1.6544 -1.2767 -2.5886 1.2250 -0.2183 -1.1513 1.2879 -0.3064 -1.5333 -2.9052 -1.2979 4.8229 -0.9117 0.4423 2.2739 0.2156 0.0704 -0.6254 -1.1542 -0.1065 0.9743 0.8046 -0.1699 -0.2539 0.2359 -0.1690
-2.4833 -3.4729 0.9664 6.1692 -1.7672 0.3518 -4.3709 2.5160 1.1784 -4.0319 2.6423 -1.2021 -2.8536 2.5224 1.1849 -2.8826 1.6539 -1.1676 -4.9851 2.3782 -0.1357 -0.8910 -2.5278 -2.0397 -0.0370 2.5574 0.5665 -0.2999 -1.2189 -1.7329 4.1743 -1.2023 -0.8553 4.5047 -0.5562 1.4595 2.9928 -0.5610 -0.8904 3.2090 0.0966 1.4221 -1.5714 -3.2376 -1.2034 1.2370 2.2057 0.6309 -1.1509 -1.6242 0.4800 -2.3002 1.4944 0.2221 -0.8604 1.5140 0.1710 -1.7138 -2.7397 0.0813 4.9563 -1.1800 0.3610 2.4667 0.1227 0.2928 -0.4675 -0.8794 -0.4479 1.2179 0.8509 0.2964 -0.0284 0.4127 0.0097
0.5487 -3.9391 -1.4189 5.8406 -2.0243 -0.2286 -4.3520 2.7574 1.4565 -4.4831 2.3795 -0.8811 -2.8466 2.5722 1.4623 -2.9822 2.1945 -0.9996 -4.7954 3.3204 0.1874 -2.2254 -2.6782 0.3542 -0.0950 2.6486 0.3338 -1.8360 -1.2954 0.6637 4.1183 -0.7493 -1.3060 4.1132 -1.1572 1.0867 2.9708 -0.0544 -1.2142 2.8747 -0.4051 1.1770 -1.5080 -3.5028 -0.3322 1.1671 2.2568 0.3170 0.0404 -1.7651 -0.7501 -2.4153 1.6876 0.3092 -0.9821 1.5882 0.2359 -0.3028 -3.0281 -0.8201 4.7010 -1.3153 -0.1092 2.3026 0.1280 0.0760 -0.7174 -0.9202 0.0272 1.0727 0.8700 0.2119 -0.2088 0.4313 0.1608
-2.3504 -3.2694 1.3606 6.0295 -1.8302 0.7603 -4.2870 1.8523 1.2279 -4.3738 2.7088 -0.9798 -2.7764 1.7298 1.1864 -2.8671 2.6325 -1.1393 -4.7272 2.9744 0.4090 -0.8037 -2.8643 -1.7886 -0.0387 2.6134 0.0968 -0.2737 -1.4933 -1.7561 4.6924 -0.4011 -0.6286 3.8411 -1.3594 1.4322 3.5315 0.2458 -0.8370 2.5981 -0.6455 1.2067 -1.4427 -3.4296 -0.8196 1.2252 2.2505 0.2458 -1.1493 -1.4764 0.4849 -2.2948 1.5557 -0.2409 -0.8555 1.5601 -0.2917 -1.6290 -2.6867 0.3342 4.8441 -1.2243 0.5514 2.4287 0.1382 0.1195 -0.4874 -0.9046 -0.5730 1.2012 0.8825 -0.0210 -0.0349 0.4408 -0.3400
-1.2694 -3.2079 -2.7379 5.8348 -1.7612 -0.2307 -3.6013 3.1312 1.4802 -3.3674 3.3267 -0.8598 -3.3620 1.6341 1.4641 -3.1153 1.8429 -1.0432 -4.2703 3.5554 0.2590 -0.8685 -3.3222 0.7739 -0.4698 2.4715 0.4788 -0.6127 -1.9270 1.1519 3.9527 -1.2230 1.1536 4.2262 -0.2892 -1.0709 2.7922 -0.5630 1.3137 2.9594 0.3964 -0.9026 -1.0641 -3.7292 -0.4352 0.8397 2.2609 0.4619 -0.7803 -1.5125 -1.2138 -2.6244 1.1755 0.2244 -1.1981 1.2941 0.3742 -1.0300 -2.7793 -1.4436 4.6827 -1.0783 -0.0860 2.2442 0.2667 0.2369 -0.5724 -1.1187 0.0841 0.9406 0.8801 0.3121 -0.2665 0.2760 0.2550
-1.3579 -2.8405 -2.7908 5.9930 -1.9662 -0.2351 -4.2566 3.2474 0.8803 -4.3362 1.4930 -0.7589 -2.7693 3.1526 0.5969 -3.1009 0.8181 -0.1998 -5.0650 2.1901 0.2882 -1.4193 -2.8967 0.7400 0.0436 2.6680 0.6608 -0.8927 -1.5819 1.1309 3.7800 -1.8529 0.6863 4.7047 -0.0637 -0.6647 2.6392 -1.1626 0.8611 3.4514 0.6501 -0.5067 -1.5711 -3.2949 -0.4785 1.3053 2.2770 0.6302 -0.6914 -1.2329 -1.2423 -2.2719 1.7218 0.6968 -0.8577 1.6447 0.3833 -1.1921 -2.4202 -1.4834 4.8471 -1.2706 -0.0972 2.4373 0.1456 0.2319 -0.5644 -0.8389 0.0660 1.2143 0.9133 0.3570 -0.0697 0.5005 0.2477
-1.2598 -3.0053 -2.8262 6.0572 -1.3801 -0.4308 -3.3647 3.6084 0.8443 -3.3100 2.5063 -1.2413 -3.2217 2.3117 1.6219 -3.1952 1.1376 -0.6005 -4.0966 3.3923 -0.3952 -1.3003 -3.3125 0.6915 -0.3780 2.3684 0.9951 -0.9147 -1.9795 1.1740 3.7717 -1.7546 0.2002 4.5781 0.4282 -0.4780 2.5475 -1.2528 0.4409 3.2416 0.9450 -0.2559 -1.3951 -3.6439 -0.5524 0.9125 2.1184 0.8559 -0.8016 -1.4344 -1.1676 -2.6075 1.1968 0.7966 -1.1663 1.2545 0.7586 -1.1414 -2.6586 -1.4924 4.8209 -0.8723 -0.2598 2.2425 0.1634 0.2140 -0.6836 -1.1296 0.1650 0.9516 0.7684 0.4941 -0.2872 0.2241 0.4479
-2.6758 -2.3797 -2.0435 5.9181 -2.1191 0.1059 -3.8203 1.2186 -1.3241 -3.9180 0.6664 0.9438 -2.7148 2.2389 -1.1548 -2.8443 1.6479 1.3657 -4.6947 1.2041 -0.1623 -1.2325 -2.5900 1.1725 0.2898 2.9457 0.0822 -0.5361 -1.3055 1.3378 3.7825 -1.6207 -0.8711 4.6587 -0.3741 1.0168 2.6739 -0.8586 -0.8932 3.4444 0.4197 1.0046 -1.8998 -2.9350 0.1226 1.5141 2.4521 0.0121 -1.2565 -0.9114 -0.9227 -2.0815 2.2519 0.2142 -0.6785 1.9618 0.2023 -1.9211 -2.0411 -0.9348 4.8084 -1.3548 0.1140 2.4748 0.2123 0.0856 -0.6065 -0.5534 0.2320 1.3131 1.0740 0.0972 0.0026 0.7500 0.1973
-1.5521 -4.0276 0.8285 6.0934 -1.8017 0.2283 -3.9822 3.1693 1.1241 -4.2577 2.4987 -1.1837 -3.1139 1.9551 1.3898 -2.7569 2.3143 -1.0734 -4.9223 2.9224 0.0416 -1.1394 -2.3249 -2.2375 -0.1854 2.4648 0.8130 -0.6756 -0.9867 -1.8472 3.7778 -1.7840 -0.3999 4.7593 -0.0179 0.9369 2.5854 -1.1637 -0.3802 3.4598 0.6258 0.9667 -1.4052 -3.2801 -1.4110 1.0921 2.1249 0.8691 -0.8474 -1.8497 0.3931 -2.4054 1.4790 0.1377 -0.9808 1.4418 0.3284 -1.2537 -3.0110 -0.0607 4.9003 -1.1776 0.2789 2.3848 0.1031 0.3326 -0.5582 -0.8660 -0.5183 1.1119 0.8082 0.3920 -0.1286 0.3835 0.0511
-2.3058 -2.8665 -2.4131 6.0801 -1.4247 -0.4081 -3.4217 3.5329 0.8050 -3.2893 2.5591 -1.3362 -3.2229 2.2054 1.5143 -3.1037 1.1622 -0.7800 -4.1358 3.3432 -0.4491 -0.7681 -3.4438 0.7141 -0.3676 2.3990 0.6951 -0.3119 -2.1135 1.1441 4.6243 -0.0986 0.9618 3.8746 -1.1069 -1.1140 3.3982 0.4061 1.1862 2.5659 -0.5245 -0.8817 -1.4059 -3.6859 -0.3821 0.9280 2.1694 0.5627 -1.1943 -1.4066 -0.9786 -2.5640 1.1589 0.6367 -1.1241 1.2375 0.6580 -1.6201 -2.6184 -1.2373 4.8581 -0.8861 -0.2286 2.3054 0.1929 0.2332 -0.5782 -1.1756 0.2268 0.9988 0.7849 0.4110 -0.2199 0.1998 0.4597
-2.7595 -3.1565 1.1310 6.0643 -1.9580 0.2722 -4.3441 2.5973 1.0500 -4.2375 2.2967 -1.3110 -2.8255 2.5958 1.0675 -2.7909 1.8368 -1.3181 -4.9317 1.9083 -0.0920 -0.6760 -2.7577 -1.6928 0.0193 2.6329 0.4509 -0.1222 -1.4055 -1.5414 4.8725 0.0425 -0.2990 3.7930 -1.8267 0.8082 3.7115 0.7182 -0.3423 2.5595 -1.0636 0.8081 -1.4939 -3.3140 -0.8633 1.2820 2.2526 0.5559 -1.3355 -1.4118 0.5362 -2.2526 1.6107 0.0767 -0.8177 1.5945 0.0775 -1.8431 -2.5891 0.2639 4.9008 -1.2792 0.2862 2.4874 0.1594 0.2374 -0.4871 -0.8441 -0.3817 1.2396 0.8902 0.2540 -0.0127 0.4702 -0.0344
-1.5630 -3.8998 0.9906 5.9223 -1.6769 0.9489 -3.5065 2.3358 1.6736 -3.4199 3.7198 -0.2315 -3.2158 1.0773 0.8807 -3.1004 2.5662 -1.1639 -4.2682 3.2761 0.8651 -0.9656 -2.6966 -2.2757 -0.3844 2.5017 0.2151 -0.5674 -1.2960 -2.0777 3.6262 -1.8643 0.2781 4.6248 0.2648 0.8583 2.4411 -1.2708 0.0574 3.3415 0.8898 0.6041 -1.2715 -3.5158 -1.3259 0.8880 2.2069 0.4168 -0.9206 -1.7867 0.2525 -2.5326 1.3620 -0.4415 -1.1021 1.4341 -0.2952 -1.2389 -3.0261 -0.0312 4.7500 -1.0606 0.7014 2.2561 0.1748 0.2278 -0.5725 -0.9553 -0.7830 0.9851 0.8619 0.0412 -0.2057 0.3778 -0.3861
-2.1761 -4.0189 0.9047 6.1995 -1.2862 0.0624 -3.5575 3.3759 0.9568 -3.1237 3.0531 -1.3323 -3.3545 1.9103 1.2943 -2.9219 1.5594 -1.1767 -4.1171 3.5251 -0.3786 -0.9761 -2.5952 -2.0955 -0.4063 2.2922 0.8787 -0.4534 -1.2852 -1.6870 4.1156 -0.7817 -1.0167 4.4455 -0.4533 1.3633 2.8624 -0.2996 -0.9343 3.0817 0.0359 1.4461 -1.5396 -3.4400 -1.2988 0.8937 2.0460 0.9064 -1.0970 -1.9896 0.5216 -2.5688 1.1568 0.2400 -1.1471 1.1963 0.4666 -1.5858 -3.1096 0.0457 4.9317 -0.8438 0.1758 2.2998 0.1322 0.3477 -0.5626 -1.0904 -0.3663 0.9846 0.7195 0.4805 -0.2269 0.1909 0.1956
0.5719 -3.8932 -1.6049 5.8616 -1.5500 -0.6046 -4.1830 3.3474 0.8995 -3.2799 2.8781 -1.2846 -3.1695 2.4453 1.5737 -3.2518 1.4602 -0.7458 -3.6343 3.9119 -0.3231 -2.1076 -3.0129 0.5132 -0.3962 2.4610 0.7193 -1.8127 -1.6208 0.8801 3.9274 -0.4176 -1.4591 4.1347 -1.0257 0.8815 2.7275 0.1449 -1.2311 2.8371 -0.4188 1.1184 -1.3816 -3.7286 -0.2783 0.8860 2.1611 0.6132 -0.0624 -1.8221 -0.7454 -2.6579 1.3623 0.6438 -1.2171 1.3511 0.5893 -0.2896 -3.1078 -0.8604 4.6494 -1.0157 -0.3577 2.1417 0.1515 0.1113 -0.7977 -1.1073 0.1710 0.8772 0.7838 0.3994 -0.3732 0.2619 0.3813
-2.3700 -3.9297 0.4826 6.1558 -1.3701 0.2558 -3.5101 3.2740 1.2056 -3.1503 3.2011 -1.1262 -3.3720 1.7694 1.3534 -3.0166 1.6911 -1.1402 -4.0832 3.6154 -0.0882 -0.6024 -2.6040 -2.2700 -0.4770 2.2207 1.0174 -0.2346 -1.2471 -1.8401 3.7974 -1.7886 0.4172 4.6949 0.4523 0.1910 2.5450 -1.3050 0.4988 3.3355 0.9554 0.2309 -1.2303 -3.4625 -1.5383 0.8161 1.9628 1.1085 -1.2404 -1.9054 0.2439 -2.6065 1.1356 0.2081 -1.1786 1.2069 0.3874 -1.5985 -3.0588 -0.2660 4.9049 -0.8695 0.2740 2.2748 0.1324 0.3975 -0.5602 -1.0242 -0.5605 0.9484 0.7137 0.4946 -0.2421 0.2341 0.0626
-0.1672 -4.2159 0.7942 5.8481 -2.0187 0.0544 -3.9882 3.4711 0.9677 -4.3476 2.3453 -1.1382 -3.0448 2.3829 1.4474 -2.8422 2.1809 -1.0474 -4.9725 2.9381 0.0376 -1.6302 -2.3575 -1.8283 -0.1530 2.5783 0.6789 -1.2779 -0.9669 -1.5136 3.9918 -1.0516 -1.1217 4.1971 -0.9258 1.2945 2.8496 -0.3411 -1.0879 2.9549 -0.1790 1.3216 -1.2986 -3.3780 -1.1094 1.1208 2.2207 0.6239 -0.3507 -1.9129 0.4928 -2.4441 1.6030 0.2939 -1.0126 1.5254 0.4032 -0.6005 -3.1264 0.0603 4.6845 -1.3422 0.1154 2.2939 0.1263 0.1827 -0.6666 -0.8578 -0.3265 1.0621 0.8711 0.2820 -0.2062 0.4308 0.1225
-2.1048 -3.6811 0.8968 5.9790 -1.6533 0.9030 -4.3275 1.9343 1.1865 -3.3779 3.6700 -0.2181 -3.0189 1.1895 1.0330 -3.0782 2.4905 -1.1242 -4.1610 3.3628 0.9698 -0.7342 -2.7632 -2.2264 -0.3101 2.5025 0.1818 -0.2683 -1.3843 -2.0245 3.6647 -1.4363 1.5020 4.6629 -0.1245 -0.2782 2.4754 -0.8381 1.3096 3.3707 0.5020 -0.4905 -1.3049 -3.4867 -1.3222 0.9615 2.2123 0.4036 -1.0337 -1.7222 0.2326 -2.4642 1.3281 -0.3710 -1.0249 1.4298 -0.3340 -1.4639 -2.9236 -0.0669 4.7926 -1.0543 0.6802 2.3014 0.1778 0.2689 -0.4634 -0.9729 -0.7656 1.0531 0.8683 0.0451 -0.1255 0.3725 -0.3913
-2.8655 -2.5219 -1.7210 5.9108 -2.2166 0.2447 -3.9694 0.8797 -1.0234 -4.2339 1.8720 1.1743 -2.7929 1.7991 -1.2917 -2.7372 1.6340 1.2242 -4.8957 1.4198 -0.0416 -1.0537 -2.5713 1.3102 0.2869 2.9013 -0.2337 -0.3712 -1.2702 1.3388 4.8970 -0.0729 0.6166 3.6830 -1.9103 -0.3956 3.8047 0.7101 0.5612 2.5294 -1.0362 -0.4998 -1.8359 -2.9702 0.3638 1.5207 2.4257 -0.2459 -1.3280 -1.0054 -0.8510 -2.0773 2.1855 -0.0166 -0.6666 1.9107 -0.0734 -1.9878 -2.1305 -0.7264 4.8173 -1.4358 0.1399 2.5414 0.2227 -0.0068 -0.5607 -0.5831 0.2049 1.3472 1.0488 -0.0829 0.0375 0.7150 0.0311
-1.1703 -2.8986 -2.7181 5.6919 -1.8279 -0.7749 -3.3835 3.6309 0.4329 -3.4415 2.0198 -1.2884 -3.1533 2.5849 1.5108 -3.2373 0.8750 -0.3179 -4.1944 3.0879 -0.6454 -1.1338 -3.2280 0.7968 -0.3241 2.5074 0.9966 -0.7809 -1.8862 1.2820 4.1268 -1.1656 0.9220 3.9473 -0.3913 -1.3719 3.0091 -0.4974 1.2623 2.7399 0.3227 -0.9972 -1.2489 -3.5560 -0.4465 0.9657 2.2567 0.8434 -0.7164 -1.3314 -1.0571 -2.5502 1.3063 0.9643 -1.1187 1.3843 0.8036 -1.0349 -2.5590 -1.3855 4.5986 -1.1113 -0.4452 2.2564 0.2636 0.2637 -0.6026 -1.0242 0.2743 0.9928 0.8963 0.5501 -0.2377 0.3412 0.5453
-1.8600 -2.6940 -2.3418 5.8416 -2.2057 -0.1328 -4.1068 1.6291 -1.2348 -4.3274 1.5576 1.1032 -2.5972 1.7234 -1.1805 -2.8344 1.6369 1.3401 -4.5995 0.8256 -0.1254 -1.6287 -2.4076 1.1700 0.2876 2.9630 0.3025 -0.9304 -1.1328 1.3813 3.6358 -1.8594 0.7420 4.7151 -0.2387 -0.7034 2.5567 -1.0670 0.8610 3.5248 0.5850 -0.6041 -1.9346 -2.8934 0.0140 1.5162 2.4709 0.2965 -0.8790 -1.0432 -1.0226 -2.0930 2.2317 0.1580 -0.6805 1.9736 0.2819 -1.5377 -2.1742 -1.1012 4.7543 -1.4139 -0.0580 2.4704 0.2157 0.1574 -0.6145 -0.5361 0.2243 1.3170 1.0891 0.2359 0.0042 0.7642 0.2363
-1.8023 -3.4893 1.1910 5.7753 -1.7584 1.3008 -3.4314 1.1222 1.2852 -4.0144 3.2295 0.2865 -3.2100 0.7475 -0.1681 -2.8667 3.1626 -0.7030 -3.6782 2.5378 1.5211 -1.1146 -2.6456 -2.1700 -0.1448 2.6942 -0.1145 -0.5890 -1.2734 -2.0987 3.3774 -1.7207 1.2574 4.7116 0.0085 0.2025 2.2443 -1.0733 0.9351 3.4799 0.6700 -0.1840 -1.4892 -3.3460 -1.1520 1.0946 2.3181 0.1471 -0.9645 -1.5257 0.2648 -2.3441 1.7497 -0.9093 -0.9520 1.6436 -0.5271 -1.4021 -2.7485 0.0939 4.6503 -1.1393 0.8937 2.2727 0.1801 0.1759 -0.5619 -0.8179 -0.8405 1.0856 0.9505 -0.1316 -0.1265 0.5240 -0.5562
-1.7090 -3.3894 1.7258 5.8295 -1.6953 1.1623 -3.5154 1.4998 1.3477 -3.2719 3.6063 0.3142 -3.2484 0.7587 0.0534 -2.9573 2.9901 -1.0380 -4.1866 2.7606 1.0675 -1.2136 -2.9194 -1.7401 -0.1850 2.6270 -0.4152 -0.7161 -1.5402 -1.8518 4.7568 0.1957 0.1438 3.5037 -1.7185 0.9437 3.6222 0.8091 -0.2374 2.2881 -1.0275 0.5630 -1.5252 -3.5038 -0.6318 1.0748 2.2880 -0.2042 -0.9693 -1.5260 0.5418 -2.4218 1.5734 -0.9252 -1.0121 1.5312 -0.6058 -1.3863 -2.7682 0.5328 4.6846 -1.1117 0.7574 2.3071 0.1949 -0.0137 -0.6307 -0.9455 -0.6558 1.0613 0.8933 -0.2848 -0.1796 0.4174 -0.5500
-1.3341 -3.5575 1.6378 5.8704 -2.0591 0.7001 -4.5703 1.1622 0.1832 -3.8023 3.4192 0.5957 -3.0887 0.8916 0.3433 -2.7501 3.2267 -0.4794 -4.9521 2.5543 0.3775 -1.4195 -2.5908 -1.7578 0.0258 2.7295 -0.1435 -0.8770 -1.2255 -1.7572 4.5697 -0.1104 1.2142 3.8346 -1.7544 -0.4091 3.4469 0.6057 1.0297 2.6492 -0.9476 -0.6323 -1.5732 -3.3208 -0.7042 1.2844 2.3364 -0.0477 -0.7194 -1.5537 0.6219 -2.2726 1.7867 -0.5703 -0.8619 1.6714 -0.2734 -1.1940 -2.7706 0.5090 4.7540 -1.3389 0.4749 2.4195 0.1843 0.0697 -0.5702 -0.8099 -0.5214 1.2032 0.9461 -0.1437 -0.0721 0.5252 -0.3170
-2.1755 -3.7777 0.5455 5.9924 -1.7201 -0.1492 -3.3963 3.4999 0.2824 -3.4338 1.8242 -1.3804 -3.1426 2.4935 1.3904 -3.2014 0.7262 -0.3629 -4.1987 2.9056 -0.7772 -0.9722 -2.1162 -2.3295 -0.2751 2.3043 1.3760 -0.4174 -0.8571 -1.8137 3.7170 -1.8369 0.5954 4.6895 0.2201 -0.2451 2.5358 -1.2257 0.7881 3.3980 0.8607 -0.0672 -1.5410 -3.0206 -1.6050 1.0174 2.0308 1.3290 -1.0464 -1.7511 0.3310 -2.4817 1.2249 0.8782 -1.0569 1.4022 0.6596 -1.5685 -2.8113 -0.2363 4.8274 -1.0779 0.0655 2.3400 0.1809 0.4283 -0.5217 -0.7764 -0.4812 1.0697 0.8558 0.5833 -0.1577 0.4416 0.1948
0.3473 -4.2378 0.0646 5.8816 -2.0338 -0.0224 -4.0595 3.3548 1.2183 -4.4279 2.3429 -0.9380 -2.8820 2.4516 1.5400 -2.9104 2.3262 -0.9557 -5.0204 2.6916 0.3485 -2.2261 -2.3211 -1.4027 -0.0669 2.5955 0.5951 -1.8124 -0.9356 -1.1443 4.4495 -0.5457 1.1961 3.8687 -1.3753 -1.0092 3.2773 0.1068 1.2834 2.6367 -0.6137 -0.9318 -1.5618 -3.3619 -1.0258 1.1874 2.1848 0.5580 -0.0729 -1.9483 0.1532 -2.3935 1.7002 0.3191 -0.9628 1.5848 0.2933 -0.4244 -3.1391 -0.2683 4.7365 -1.3249 0.0125 2.3104 0.0777 0.1814 -0.7468 -0.8535 -0.3334 1.0796 0.8348 0.2191 -0.2073 0.4392 0.0491
-1.8423 -3.4525 1.1395 5.8876 -2.1609 0.0429 -3.9681 2.3487 -1.3853 -4.4547 1.3385 0.6867 -2.4716 2.2775 -1.1615 -2.9925 1.1982 1.0584 -4.6236 1.2115 -0.7542 -1.4805 -1.8871 -2.0068 0.1923 2.7594 1.0303 -0.8007 -0.6188 -1.7041 3.5325 -2.0402 0.4883 4.8241 -0.0885 -0.1474 2.4249 -1.2900 0.6218 3.6100 0.6998 -0.0470 -1.8164 -2.7720 -1.1287 1.4171 2.2588 1.0531 -0.9400 -1.3821 0.5736 -2.1251 2.1931 0.3125 -0.7289 1.8835 0.4828 -1.5133 -2.4974 0.1942 4.7739 -1.4049 0.1056 2.4375 0.1484 0.3401 -0.5967 -0.4662 -0.3901 1.2694 0.9977 0.4698 -0.0148 0.7451 0.1253
-1.7948 -3.1494 1.8771 5.8166 -2.2809 0.0639 -4.0625 2.0788 -1.5259 -4.3929 1.5223 0.7396 -2.5534 2.0278 -1.4049 -2.9071 1.4355 1.0222 -4.6710 1.1068 -0.6281 -1.5946 -2.2202 -1.5247 0.2649 2.8996 0.4632 -0.8975 -0.9258 -1.5061 4.8264 -0.1527 -0.4366 3.5721 -1.9400 0.6177 3.7431 0.6445 -0.4286 2.4255 -1.0537 0.6622 -1.8900 -2.9139 -0.4767 1.4865 2.3934 0.5087 -0.9218 -1.2349 0.8803 -2.0969 2.2404 0.0254 -0.6925 1.9493 0.1541 -1.5159 -2.3956 0.7513 4.7241 -1.4930 0.0968 2.4685 0.1922 0.1404 -0.6262 -0.5256 -0.2577 1.2968 1.0440 0.2017 -0.0073 0.7513 -0.0153
-2.3087 -3.9412 0.6818 6.0707 -1.3702 -0.4712 -3.0530 3.6254 0.0745 -3.0891 1.8866 -1.5253 -3.1183 2.6463 1.2344 -3.1735 0.8220 -0.4492 -3.7621 3.0990 -1.0830 -1.1081 -2.2323 -2.1647 -0.3120 2.2153 1.4653 -0.5720 -0.9755 -1.6271 4.5974 -0.3710 1.1391 3.8785 -0.8864 -1.1187 3.3739 0.0943 1.4487 2.5797 -0.3349 -0.7862 -1.6565 -3.1581 -1.4523 0.9744 1.9243 1.3970 -1.1858 -1.9063 0.5042 -2.5651 1.2777 0.8655 -1.1161 1.2711 0.8418 -1.6983 -2.9623 -0.0817 4.8450 -0.8868 -0.1891 2.2945 0.1154 0.4556 -0.6451 -0.9262 -0.2901 0.9970 0.7017 0.7260 -0.2473 0.2721 0.4049

>  <OB_ATOM_TYPES> (1bl7A1)
N.pl3 F C.3 C.3 C.3 C.3 N.3 C.ar C.ar C.ar C.ar C.ar C.ar C.ar N.ar N.ar N.ar C.3 N.ar C.ar C.ar C.ar C.ar C.ar C.ar

>  <ENSEMBLE_RMSD> (1bl7A1)
0.000 0.249 0.643 0.890 0.995 1.004 1.072 1.075 1.081 1.138 1.169 1.180 1.186 1.196 1.197 1.206 1.218 1.238 1.240 1.263 1.320 1.333 1.341 1.367 1.379 1.385 1.438 1.438 1.457 1.460 1.466 1.474 1.525 1.528 1.631 1.649 1.698 1.810 1.833 1.865

$$$$
