
 OpenBabel03071213D

 37 38  0  0  0  0  0  0  0  0999 V2000
   42.2250   18.3330   37.0870 C   0  0  0  0  0
   41.8110   17.6760   39.4790 C   0  0  0  0  0
   35.7420   14.2420   42.2510 C   0  0  0  0  0
   33.7770   15.6910   42.5010 C   0  0  0  0  0
   38.1600   19.7130   34.3160 C   0  0  0  0  0
   41.8710   24.3920   39.7540 F   0  0  0  0  0
   42.1300   25.5370   38.0580 F   0  0  0  0  0
   40.2100   25.2310   38.7870 F   0  0  0  0  0
   36.6680   17.7920   36.2510 O   0  0  0  0  0
   38.5140   21.5650   38.2110 O   0  0  0  0  0
   40.7380   23.4660   36.4830 O   0  0  0  0  0
   41.1000   19.8690   38.7470 C   0  0  0  0  0
   36.5310   20.2380   36.1060 C   0  0  0  0  0
   37.7120   22.1170   34.9400 C   0  0  0  0  0
   41.4280   22.1360   38.1490 N   0  0  0  0  0
   36.4320   19.2410   38.1030 N   0  0  0  0  0
   39.1210   20.5680   36.1900 N   0  0  0  0  0
   34.4260   23.4610   32.4590 C   0  0  0  0  0
   34.7240   24.0770   33.6770 C   0  0  0  0  0
   35.1790   22.3730   32.0390 C   0  0  0  0  0
   35.7530   23.6410   34.4900 C   0  0  0  0  0
   36.2250   21.9230   32.8500 C   0  0  0  0  0
   36.8200   17.0940   39.1380 C   0  0  0  0  0
   35.2900   18.7230   40.0590 C   0  0  0  0  0
   36.5290   16.2290   40.2070 C   0  0  0  0  0
   35.0070   17.8720   41.1250 C   0  0  0  0  0
   41.2800   18.4430   38.2880 C   0  0  0  0  0
   35.2730   15.6970   42.4140 C   0  0  0  0  0
   40.8000   20.9190   37.7020 C   0  0  0  0  0
   36.5440   18.8920   36.8120 C   0  0  0  0  0
   39.3070   21.0480   37.4350 C   0  0  0  0  0
   36.5220   22.5540   34.0800 C   0  0  0  0  0
   41.1490   23.3540   37.6440 C   0  0  0  0  0
   36.1950   18.3510   39.0700 C   0  0  0  0  0
   35.6130   16.6130   41.2160 C   0  0  0  0  0
   41.3470   24.6160   38.5620 C   0  0  0  0  0
   37.7730   20.6860   35.4060 N   0  0  0  0  0
  1 27  1  0  0  0
  2 27  1  0  0  0
  3 28  1  0  0  0
  4 28  1  0  0  0
  5 37  1  0  0  0
  6 36  1  0  0  0
  7 36  1  0  0  0
  8 36  1  0  0  0
  9 30  2  0  0  0
 10 31  2  0  0  0
 11 33  2  0  0  0
 12 27  1  0  0  0
 12 29  1  0  0  0
 13 30  1  0  0  0
 13 37  1  0  0  0
 14 32  1  0  0  0
 14 37  1  0  0  0
 15 29  1  0  0  0
 15 33  1  0  0  0
 16 30  1  0  0  0
 16 34  1  0  0  0
 17 31  1  0  0  0
 17 37  1  0  0  0
 18 19  1  0  0  0
 18 20  2  0  0  0
 19 21  2  0  0  0
 20 22  1  0  0  0
 21 32  1  0  0  0
 22 32  2  0  0  0
 23 25  1  0  0  0
 23 34  2  0  0  0
 24 26  2  0  0  0
 24 34  1  0  0  0
 25 35  2  0  0  0
 26 35  1  0  0  0
 28 35  1  0  0  0
 29 31  1  0  0  0
 33 36  1  0  0  0
M  END
>  <MOLID> (1bmaA1)
1bmaA1

>  <SMILES_CANONICAL> (1bmaA1)
CC(C[C@@H](C(=O)N[N](Cc1ccccc1)(CC(=O)Nc1ccc(cc1)C(C)C)C)NC(=O)C(F)(F)F)C	

>  <FINGERPRINT> (1bmaA1)
0000000000000001110000000000011000001001000000000011100000000000000000000001000000000001011000000100010000000001000001100000000000000000000000000000000000000000000000000000000000000000110000000000000000000001000000000000000000100010000000000001000000010000000000100000000000000000000000001100000000001001000011101100100000001000001110000000000000011100010000000000000110110000000000000000011000000000100010000000001100000000011100001010000000000000001000000000000000000100110000000000000000000000000000000000010000000000000001000000000000000000000000100000000000000000000000000000110000010000000000000000000000010000000000000000001000000101110000000001000000000000000000000011100000000100100001100000000001100000000000001010000000000000000000100110000000000000000110100000000000000000000000000000000011000000000000000000000100000000000000000000000100000000000000001001000000000000000000001000000000001001000000001000000100000000000000000100111000000000000000110010000000000100111000000000000000000000000001000000011010001000

>  <MACCS166> (1bmaA1)
000000000000000000000000000001000000000001001000010111000000000000000000010100110000110001111110101100010111011100101000010110000111111101011100110110101111011110111000

>  <OB_MW> (1bmaA1)
521.274

>  <OB_logP> (1bmaA1)
5.3954

>  <OB_PSA> (1bmaA1)
90.54

>  <OB_MR> (1bmaA1)
138.039

>  <OB_ATOMIC_CHARGES> (1bmaA1)
7.00342e-05 7.00342e-05 0.0046849662 0.0046849662 -0.0606447439 -0.162004199 -0.162004199 -0.162004199 -0.2751155921 -0.2732241996 -0.2641877295 0.031032826 0.0470418361 -0.0145506466 -0.1907709255 -0.1808560551 -0.2669979708 -2.18805e-05 -0.0003924389 -0.0003924389 -0.0061842499 -0.0061842499 0.0162734841 0.0162734841 -0.0029419932 -0.0029419932 0.0022060695 0.0223537966 0.1712921146 0.2284469178 0.2458650363 -0.039313557 0.3371085329 0.073276426 -0.022420035 0.4711313107 0.421341461

>  <MCT_HBD> (1bmaA1)
3

>  <MCT_HBA> (1bmaA1)
7

>  <ENSEMBLE_TOTAL> (1bmaA1)
50

>  <ENSEMBLE_COORDS> (1bmaA1)
3.8632 -1.0593 -0.4506 3.6166 -2.2515 1.6786 -1.1632 -5.9131 4.8361 -2.9446 -4.4660 5.7476 -0.3540 -0.5135 -3.3684 5.2530 3.6892 1.3312 3.4519 4.8835 1.5905 3.7588 3.0916 2.7962 -2.0435 -2.6031 -1.5280 -0.5361 1.2834 0.5844 3.6017 2.8808 -0.6986 2.1269 -0.3313 1.2411 -2.1208 -0.2108 -1.6563 -0.8945 1.7580 -2.4808 2.1556 2.0728 0.9118 -2.2713 -1.3072 0.4074 0.2047 0.0632 -1.2732 -2.6053 3.0359 -6.2144 -3.4546 2.8178 -5.0565 -1.2836 2.8054 -6.1289 -2.9223 2.3866 -3.8965 -0.7070 2.3647 -4.8730 -2.0867 -3.4764 1.3552 -1.6823 -1.5202 2.7224 -1.9515 -4.2953 2.5395 -1.5589 -2.2810 3.8252 2.8739 -1.4881 0.6071 -1.6218 -4.4835 5.0178 1.8224 0.8097 0.2913 -2.0764 -1.5274 -0.9451 0.3556 0.8041 -0.1060 -1.4889 2.1447 -3.7999 3.2337 2.8124 0.4720 -1.9310 -2.1425 1.4305 -1.7112 -3.7278 3.7368 3.9139 3.6073 1.5507 -0.8225 0.2864 -2.1974
4.3423 -1.0740 -0.8611 4.5486 -2.1620 1.3297 -1.8885 -5.3638 5.6912 -3.9451 -6.1895 4.6028 -0.0549 -0.3130 -3.2238 4.5433 4.9487 -0.3976 3.5374 5.1018 1.5272 5.0706 3.5826 1.2128 -0.3872 -2.3459 -0.6678 0.1962 1.2028 0.8222 2.1665 3.6258 -0.7490 2.9464 -0.3006 1.1071 -1.5651 -0.3140 -1.2453 -0.6514 1.8101 -2.0659 2.8818 2.1047 0.8368 -2.4758 -1.8610 0.2580 0.7631 0.1590 -1.1975 -2.8437 3.0630 -5.5376 -1.4658 3.4614 -5.3179 -3.4795 2.3078 -4.6239 -0.8176 3.0605 -4.2107 -2.7816 1.8838 -3.4203 -1.5951 -3.4820 1.7750 -3.7227 -2.4277 2.2379 -1.7662 -4.2851 2.9658 -3.8777 -3.1659 3.3533 3.5918 -1.4682 0.3883 -3.1422 -4.9574 4.9490 2.5199 0.8490 0.2157 -1.3516 -1.6063 -0.5173 1.0165 0.8026 0.0043 -1.4929 2.2281 -3.2299 2.9502 3.2879 0.1349 -2.5230 -2.5726 1.4255 -2.8643 -4.1428 3.7325 4.0253 4.2151 0.6221 -0.4083 0.3372 -1.9265
3.3873 -1.7762 0.7414 2.9877 -1.9564 3.1546 -0.8427 -5.2600 5.3564 -3.0267 -6.1215 4.5900 0.0449 0.1621 -3.3513 4.0576 4.5671 1.0786 5.3361 2.8471 0.6621 4.8411 4.2506 -0.9268 -0.3244 -2.2644 -1.1999 -0.3275 1.3504 0.7773 2.5636 2.9256 -1.2926 2.0064 -0.0317 1.9545 -1.6314 -0.2750 -1.5826 -0.9690 2.0433 -2.0604 2.6332 2.0394 0.8453 -2.2713 -1.8550 0.0232 0.5908 0.5082 -1.2132 -3.1195 3.4792 -5.4970 -3.8325 2.8521 -4.3981 -1.7793 3.5758 -5.4560 -3.1557 2.3672 -3.3385 -1.0523 3.0799 -4.3033 -1.1442 -3.4270 1.4213 -3.1977 -2.3933 2.1764 -1.1283 -4.2145 2.6345 -3.1787 -3.1170 3.3114 2.3955 -1.4931 1.8435 -2.1959 -4.8779 4.8004 2.0186 0.7399 0.6501 -1.2747 -1.5554 -0.8932 0.6087 0.9265 0.1113 -1.7043 2.4871 -3.2866 3.1095 2.8090 -0.1978 -2.1247 -2.5323 1.2018 -2.1073 -4.0765 3.5486 4.3314 3.6075 0.1581 -0.5242 0.6093 -2.0437
1.3240 -1.3797 2.2414 3.7487 -1.1972 2.6505 -1.2217 -6.6027 4.5876 -3.6200 -6.1369 4.9280 -0.3719 -0.3499 -2.8963 5.7153 3.5989 0.5076 4.4758 4.3528 -1.1214 4.4507 5.3428 0.8159 -1.6043 -2.4524 -1.2846 1.8064 1.2998 -2.1636 2.6245 3.5744 1.5975 2.7790 -0.2387 0.5874 -2.0928 -0.1067 -1.0888 -1.1268 1.9067 -1.9925 3.2785 2.0600 -0.0273 -2.5802 -1.5959 0.6615 0.1379 0.4192 -0.7656 -2.5131 3.1501 -5.8491 -3.2388 2.1322 -5.1112 -1.4131 3.7102 -5.3164 -2.8110 1.7450 -3.8956 -0.9363 3.2751 -4.0183 -1.8930 -3.7874 1.3385 -2.9113 -2.2861 2.9380 -1.8137 -4.7922 2.3784 -2.8196 -3.2123 3.9099 2.5441 -0.5116 2.0554 -2.2568 -5.5112 4.7432 2.2062 1.1126 0.2123 -1.9978 -1.5194 -0.5947 1.3898 0.9730 -1.0554 -1.5861 2.3079 -3.3476 3.3686 3.2431 0.6776 -2.4065 -2.5720 1.6023 -2.2625 -4.5282 3.6204 4.4971 4.1231 0.2166 -0.8689 0.4540 -1.7415
4.7438 0.8921 -0.7430 5.1977 -1.1989 0.4371 -3.5457 -4.6100 5.7126 -2.4823 -2.4065 6.1033 -0.4756 -0.6250 -3.9947 3.8355 4.4957 0.8149 1.8532 4.5839 1.7066 3.2623 3.0365 2.3245 -0.3152 -3.3561 -1.0338 -0.3021 -0.2195 0.3470 2.2054 3.2797 -1.0080 2.8388 -0.5727 0.0885 -1.6378 -1.8550 -2.3289 -1.7379 0.6242 -2.2276 1.8554 1.6019 0.5362 -2.3389 -2.5418 -0.1942 0.3256 -0.5432 -1.8899 -0.6387 4.2741 -4.1870 -0.3707 4.0563 -2.7782 -1.3180 3.3520 -4.8918 -0.7678 2.9178 -2.1844 -1.7626 2.1290 -4.2442 -1.2866 -3.5577 1.6990 -3.3863 -2.3792 1.9508 -1.3181 -3.8700 3.1130 -3.4301 -2.6879 3.2575 4.2357 -0.5100 -0.5027 -2.3988 -3.7035 5.3327 1.8856 0.4979 -0.4066 -1.3070 -2.6397 -1.1069 0.4839 -0.0775 -0.5843 -1.4449 1.8930 -2.9563 2.2704 2.8582 0.1453 -2.2707 -2.8297 1.1389 -2.3546 -3.4597 3.8669 2.8020 3.7259 1.2508 -0.9049 -0.5748 -2.5631
3.0923 -2.4913 0.9802 2.9119 -1.0854 2.9987 -2.7474 -5.9494 4.7071 -4.6173 -4.3458 4.8336 1.1298 -1.2801 -3.2106 2.7945 5.4404 -1.0359 3.4368 5.3385 1.0444 4.5450 4.2651 -0.4936 -0.8083 -3.2673 -1.6520 2.8490 0.6382 -2.1327 1.1902 3.5720 0.3646 3.3519 -0.0496 0.8027 -1.1260 -0.9839 -2.2730 0.0553 0.9568 -3.2490 3.0501 2.2245 0.0793 -1.7443 -1.7343 -0.1433 0.7772 -0.0488 -1.2597 -3.1045 3.5863 -2.0111 -3.4078 2.3601 -2.7244 -1.8277 3.9118 -1.7434 -2.4083 1.5582 -3.1309 -0.7524 3.0260 -2.1479 -2.1993 -3.8200 0.9326 -2.2256 -1.7571 2.2002 -2.5595 -4.5309 2.1424 -2.5540 -2.4175 3.3244 2.6262 -1.1611 1.5193 -3.1337 -4.4929 4.5898 2.3796 0.9469 0.2078 -1.1504 -2.1375 -1.3249 2.0545 0.5126 -1.2047 -1.0286 1.8780 -2.7905 2.3884 3.4290 0.1372 -2.0050 -2.4889 0.9631 -2.7332 -3.8637 3.3000 3.2940 4.6048 -0.0890 0.2066 -0.3439 -2.5108
2.4755 -1.5740 1.8066 1.0693 -1.0872 3.7510 -1.6875 -5.3703 5.0460 0.3428 -3.9516 5.2901 -0.2554 0.1939 -3.6415 4.2858 3.1028 2.7678 5.7000 3.0403 1.1155 3.8681 4.2005 0.9277 -1.0906 -2.4506 -2.0440 -0.7350 1.9794 0.2276 4.2979 0.7381 0.8411 1.1215 0.5588 1.9482 -2.0220 -0.2440 -1.9450 -1.4368 2.0593 -2.5299 2.3870 2.0051 0.4779 -2.0805 -1.6399 -0.0825 0.1378 0.6205 -1.4750 -3.3078 3.0664 -6.2768 -2.1535 3.7860 -5.7716 -3.8589 2.0852 -5.5401 -1.6135 3.4515 -4.5868 -3.2813 1.7347 -4.2495 -0.9309 -3.5562 0.7636 -2.0403 -2.0215 2.2733 -0.5579 -4.3627 1.9082 -1.7399 -2.7954 3.3307 1.1919 -0.9190 2.2557 -0.4981 -4.7689 4.3383 1.4275 0.9138 0.5092 -1.6126 -1.5649 -1.3808 0.1482 1.2742 -0.2472 -2.1825 2.3724 -3.7969 3.7004 1.8120 0.8756 -1.5979 -2.4012 0.9407 -0.9207 -3.9867 3.1487 4.3736 3.0406 1.4147 -0.9239 0.6585 -2.3909
3.2292 -0.9814 -1.1088 3.5716 -1.7940 1.1826 -2.0425 -5.1019 5.8186 0.0400 -3.7794 5.7311 -1.1817 -0.7095 -3.5047 3.5426 4.9230 0.7055 2.2379 4.0399 2.2129 4.3379 3.4739 2.1175 -2.1336 -3.0468 -1.4755 -1.0701 1.1839 0.4402 3.8564 2.1578 -0.2920 1.7861 -0.1339 0.8134 -2.7671 -0.7346 -1.6519 -2.0065 1.4184 -2.4709 1.6280 2.2414 0.3378 -2.7454 -1.8138 0.4115 -0.4823 -0.0973 -1.4305 0.1098 3.7685 -5.3522 -1.0878 3.0423 -5.7374 0.5612 3.7026 -4.0876 -1.7487 2.3013 -4.8290 -0.1521 2.9093 -3.1080 -2.1346 -3.8843 1.4041 -1.9813 -1.8254 2.6739 -1.6679 -4.6101 2.5680 -1.6009 -2.5045 3.7671 2.5409 -1.2942 0.1974 -0.9109 -4.6414 4.9307 1.2728 0.9167 -0.1554 -2.4488 -2.0003 -0.9251 -0.2372 0.7528 -0.3508 -1.2420 2.2104 -3.4678 2.9532 2.6497 0.3845 -2.2398 -2.5436 1.4417 -1.4219 -3.9496 3.7159 3.2500 3.7644 1.3534 -1.6144 -0.0099 -2.2599
4.3555 0.0845 1.9917 2.5295 -0.4097 3.5561 -1.7626 -7.2385 3.1175 -4.0902 -6.5658 3.6663 -0.9735 -0.5197 -2.1180 5.0305 4.1872 0.8125 6.3657 2.4670 0.7322 6.1729 3.7771 -0.9962 -1.1085 0.1837 1.8726 0.3049 2.9917 0.0068 4.5991 1.4378 -1.3617 2.1919 1.3042 1.8102 -1.8948 0.8776 -0.2724 -1.0532 1.9625 -2.3770 3.1334 2.6127 -0.0156 -2.2047 -1.3689 0.5108 0.3723 0.8434 -0.9492 -3.9984 2.0651 -5.4922 -4.0971 2.9445 -4.3409 -2.9838 1.1875 -5.5819 -3.1953 2.8591 -3.3453 -1.9849 1.1316 -4.5315 -1.8391 -2.5394 2.5746 -2.7521 -3.7081 0.6655 -1.9662 -3.7599 3.3460 -2.8789 -4.8411 1.3820 2.8552 -0.0169 2.1364 -2.6534 -6.1129 3.5821 2.2195 1.5513 0.3203 -1.6552 -0.1364 0.8206 0.8510 1.9145 -0.2020 -2.1076 1.8961 -3.4300 4.3759 2.3194 -0.5350 -2.2104 -2.5035 1.2809 -2.4809 -4.8694 2.7842 5.4724 3.1881 0.0070 -0.9390 0.8035 -1.4273
3.4138 -1.0700 1.1046 2.4626 -1.1027 3.3640 -0.2378 -4.6254 5.5113 -0.9762 -6.6486 4.3241 -1.0602 -0.4102 -3.2754 4.4429 4.0478 -1.3561 2.6942 4.7409 -0.2632 4.2576 3.6217 0.7700 -2.1829 -2.8072 -1.5938 -1.0937 1.1745 0.7678 3.3139 1.6334 -1.5644 1.5678 0.5028 1.7340 -2.7241 -0.4780 -1.4668 -1.8420 1.6654 -2.0722 1.7045 2.1930 0.0020 -2.8853 -1.8477 0.4221 -0.4302 -0.0057 -1.1374 0.3659 4.2520 -4.6531 -0.4105 3.1594 -5.2104 0.3484 4.4889 -3.3294 -1.1396 2.3757 -4.3975 -0.3996 3.6123 -2.4504 -1.9170 -3.8952 1.1456 -2.5777 -2.2324 2.7742 -1.5278 -4.7642 2.2320 -2.2565 -3.0596 3.7862 2.1445 -0.8851 1.9033 -1.3533 -5.2289 4.6892 1.2589 0.8499 0.2937 -2.5075 -1.8450 -0.9085 -0.2285 0.7519 0.0084 -1.0579 2.5560 -2.9575 2.8640 2.4048 -0.7198 -2.3854 -2.6602 1.3980 -1.6859 -4.3743 3.5113 3.5541 3.6990 -0.3879 -1.5134 0.2109 -1.9978
3.4522 -0.6977 -1.0408 4.2872 -1.1152 1.2262 -3.1804 -6.2878 5.7311 -2.4231 -7.6152 3.7868 -1.5262 -0.5769 -1.9706 5.7680 4.0082 -0.9086 4.1767 5.4907 -0.9793 4.4880 4.3084 0.8273 -0.9196 -0.7766 1.8668 -0.0414 2.3493 0.8445 3.6822 2.7428 -2.2038 2.7101 0.7422 0.8983 -2.2705 0.2982 0.2193 -1.7039 1.8927 -1.5767 2.5215 2.8943 -0.2108 -2.6948 -1.9565 0.9060 -0.0675 0.5081 -0.6104 -0.4694 2.9593 -5.5357 -1.7441 2.3051 -5.3002 0.3510 3.2347 -4.5054 -2.0977 1.9546 -4.0507 -0.0375 2.8629 -3.1559 -1.9869 -3.2279 2.8063 -3.9257 -3.9384 1.5580 -2.1393 -4.3880 3.6584 -4.0714 -5.0188 2.3520 3.0977 -0.6447 0.4272 -3.3472 -6.5097 4.2435 2.0042 1.5501 -0.1663 -1.8555 -0.8653 1.0767 0.5158 1.5641 0.0866 -1.1943 2.2097 -2.9401 3.5460 3.2153 -1.0778 -2.8394 -2.9976 1.7904 -3.1402 -5.2640 3.4465 4.4856 4.2478 -0.5290 -1.4103 0.5419 -0.9899
2.5387 -0.9761 2.6385 4.1519 0.8334 3.1067 -2.9378 -7.4305 3.8801 -5.0670 -6.2520 4.3838 0.2842 -1.6439 -1.8225 5.5254 4.3980 -0.7858 4.1503 4.2663 -2.4758 3.9412 5.8725 -1.0219 -1.2511 -0.4773 1.3737 2.5031 0.2443 -2.1410 2.5354 4.1682 0.4969 3.4537 0.3760 0.7891 -1.6185 -0.2858 -0.9821 -0.2684 0.5086 -2.9279 3.4660 2.3561 -0.6110 -2.3207 -2.2105 0.2215 0.5966 0.3953 -0.7677 -2.7304 4.0074 -3.2754 -1.7571 3.8982 -2.2048 -2.8867 2.9959 -4.1477 -0.9881 2.7998 -2.1056 -2.0731 1.7993 -4.0250 -2.0057 -3.0988 2.4259 -3.5777 -4.1424 0.9160 -2.3420 -4.0983 3.4208 -3.8642 -5.0939 1.8251 3.0051 0.3985 2.2295 -3.5829 -6.0951 4.1576 2.6223 1.3538 -0.0072 -1.6709 -0.9936 0.3431 1.9295 0.6076 -1.1190 -1.1696 1.6937 -3.0338 3.3108 3.6971 -0.3296 -2.6268 -3.0856 1.2312 -3.2343 -5.0664 3.1399 4.2277 4.5517 -1.1513 -0.2686 -0.2716 -1.6441
4.1831 0.0343 -3.4052 5.9590 0.6945 -1.8278 -2.0211 -3.7719 6.5063 -2.8962 -5.5971 5.0761 -0.5854 -0.7196 -3.1483 2.4617 1.4957 4.2212 4.4331 2.1106 3.5245 2.6601 3.2192 2.9070 -0.5680 -1.8887 -0.5139 0.7029 2.4741 -0.6147 3.0260 -0.1698 2.0862 3.6562 1.5283 -1.5134 -1.4588 0.3104 -1.0346 -0.6697 1.7632 -2.9161 2.9147 1.7395 0.7777 -2.4302 -1.0758 0.6197 0.7706 0.4040 -1.7256 -3.1947 1.9757 -6.3624 -1.7544 1.8557 -6.4957 -3.7563 2.0515 -5.1426 -0.9808 1.8019 -5.3971 -2.9220 1.9936 -3.9553 -1.3869 -2.4552 2.2870 -3.7259 -1.8687 2.4783 -1.5139 -3.2359 3.5033 -3.8414 -2.5767 3.6165 4.4954 0.3577 -1.9655 -2.9508 -4.1162 5.3672 2.6622 1.0674 -0.4716 -1.3997 -1.0126 -0.3045 1.2641 1.4264 -0.9183 -1.5923 1.8342 -4.0778 3.0109 1.0521 1.9667 -2.4546 -1.8148 1.7733 -2.6957 -3.3015 4.1476 3.1381 1.9704 3.1442 -0.5392 0.4438 -2.2124
5.9443 -1.2386 -1.8150 6.7061 0.6177 -0.3714 -5.2177 -3.0225 5.4716 -5.4340 -5.2507 4.4396 0.3402 -0.3290 -3.3767 5.0592 4.5096 0.9841 2.9548 5.0115 0.6943 3.6776 4.4400 2.6668 0.1278 -1.7470 0.8788 1.8549 1.8638 -2.5243 3.3303 1.8915 1.9228 4.6169 0.8403 -1.6655 -0.0755 -1.8265 -1.5057 -0.6539 0.6146 -1.2288 3.4481 2.4848 -0.3150 -1.8597 -2.5180 -0.0928 1.5149 -0.1763 -1.3994 -4.0434 2.1332 -3.3585 -3.9299 0.7144 -3.0734 -3.0737 2.9791 -2.9681 -2.8575 0.2450 -2.4117 -1.9070 2.4700 -2.2702 -2.2469 -2.6901 2.2726 -4.0150 -3.2292 0.7175 -3.1476 -3.0115 3.3628 -4.8591 -3.5083 1.7295 5.5045 -0.1172 -0.9095 -5.4073 -3.7650 4.1677 3.3969 1.1387 -0.8267 -0.5756 -1.9951 -0.0951 2.1644 1.0256 -1.6833 -1.7922 1.1536 -2.0186 3.5006 2.7286 1.0413 -2.6534 -2.7900 0.9930 -4.4106 -3.4092 3.1143 3.7962 4.1661 1.3421 0.2226 -0.4038 -1.8892
4.3981 -0.0390 0.6270 3.3950 -1.0425 2.6241 -1.8660 -6.5336 4.7648 -1.3735 -7.2706 2.4584 -2.0027 -0.4068 -1.5884 5.7108 2.8569 -1.4297 4.4900 4.6575 -1.3523 4.8532 3.5040 0.4635 -2.0162 0.1760 2.5228 -0.1942 2.6940 0.8062 3.2354 1.9985 -2.2462 2.2223 0.8168 1.5013 -2.7137 0.9098 0.3705 -1.8444 2.1003 -1.5701 2.4492 2.5777 -0.1532 -3.1810 -1.3050 1.1460 -0.4654 0.6488 -0.3051 -0.3949 2.4012 -5.5894 -1.4925 1.5085 -5.2673 0.1588 3.1616 -4.6282 -1.9431 1.4288 -4.0033 -0.3059 3.0461 -3.2569 -1.9663 -2.7210 2.6457 -3.6808 -3.6658 1.2307 -1.7505 -4.0331 3.2171 -3.4947 -4.8837 1.7754 3.0912 -0.4051 1.2905 -2.3246 -6.4766 3.3242 1.7326 1.3703 0.1807 -2.5423 -0.1159 1.4516 0.2563 1.6927 0.2607 -1.2758 2.1673 -2.9429 3.3773 2.5786 -1.1726 -2.8900 -2.5318 1.6851 -2.4862 -5.0851 2.8093 4.5985 3.3952 -0.8653 -1.7641 0.8248 -0.7848
2.9138 -0.6110 -3.1222 5.1295 -0.4106 -2.0753 -0.2129 -4.4324 5.5835 -2.6110 -4.0182 5.9748 -0.9712 2.5702 -2.3794 1.5403 1.1633 4.4446 3.6283 0.6563 4.0809 2.8023 2.5157 3.2964 -1.2581 -1.7017 -1.0727 0.5064 2.4592 -0.1067 1.5635 -0.6205 2.3127 3.2389 0.8911 -1.1760 -1.9882 0.5849 -1.3285 -0.9199 0.3545 -3.5529 2.5113 1.1231 1.1196 -2.1337 -0.5057 0.7386 0.3341 0.7637 -1.7256 -2.3829 2.4419 -6.9972 -3.2994 1.8459 -6.0420 -1.0551 2.3517 -6.8034 -2.8229 1.1954 -4.9656 -0.5387 1.6490 -5.6417 -1.0925 -2.3686 1.8434 -2.4569 -0.8051 3.0857 -0.8789 -3.1069 3.0752 -2.2448 -1.4790 4.2293 3.6442 -0.4168 -1.8154 -1.3059 -3.3887 5.5438 2.1183 0.6568 -0.1858 -1.7025 -0.6798 -0.5649 0.8882 1.4194 -0.6316 -1.3882 1.1041 -4.7513 2.1332 0.4658 2.2684 -1.8557 -1.2605 1.8423 -1.4419 -2.6955 4.2288 2.5253 1.2041 3.5111 -0.9162 1.0849 -2.2413
3.9530 0.9787 -3.4281 5.6088 -0.6751 -2.7005 -7.1364 -4.9932 2.5606 -5.7511 -5.8008 4.4530 0.4567 -1.0386 -1.2221 5.6222 5.0844 -0.6194 4.0652 6.3938 0.1527 5.1566 5.0936 1.5137 0.1136 -2.5990 1.3114 2.4044 1.0316 1.3828 2.3649 4.3598 0.0500 4.4093 0.6078 -0.9732 0.0510 -0.2103 1.1317 -1.1344 0.8624 -0.7140 4.0816 2.8101 -0.0227 -1.8286 -1.4601 1.9344 1.1164 1.0641 -0.5781 -2.6798 0.5084 -4.6919 -3.2491 -0.2485 -3.5919 -1.6601 1.3569 -4.4698 -2.7464 -0.1155 -2.3519 -1.1206 1.5064 -3.1289 -2.7367 -3.6384 1.4861 -3.7767 -2.2141 3.1371 -3.7550 -4.6410 1.7541 -4.7467 -3.1219 3.3536 4.2948 -0.0186 -2.3470 -5.7546 -5.4271 2.9884 3.4080 1.7127 -0.7043 -0.5408 -1.5671 1.4329 2.2844 1.1740 0.1700 -1.6164 0.7679 -2.1188 3.5627 4.0854 0.0670 -2.7093 -2.4852 2.1830 -4.7239 -4.4029 2.6589 4.6037 5.1507 0.2749 0.1096 0.1086 -0.3338
6.6637 0.5952 -0.1914 5.0504 -0.1047 -1.9063 -7.1468 -5.1371 4.0315 -5.3518 -6.5227 5.0279 0.0794 -1.2431 -1.9906 4.6491 5.6421 -2.2463 2.8564 6.2371 -1.1674 4.5131 5.2988 -0.1016 -1.2789 -3.3565 -0.5613 1.3332 1.3931 1.1931 2.8726 3.6110 -2.6987 4.2773 1.1467 0.1071 0.1098 -1.6709 0.4653 -0.8811 0.4510 -0.4172 2.9600 3.1309 -0.4369 -1.8639 -2.5098 1.5309 1.4454 -0.1162 -0.5969 -1.4621 3.3872 -3.4900 -2.2514 2.1680 -3.4764 -0.5596 3.6143 -2.5205 -2.0630 1.2491 -2.5110 -0.3775 2.6354 -1.4691 -3.3482 -4.3989 1.2881 -3.2823 -3.1535 3.3557 -4.3877 -5.2392 1.8645 -4.2641 -3.9086 3.8799 5.3887 0.9741 -0.9053 -5.8598 -5.8791 3.7580 3.0133 1.6837 -0.5331 -1.0847 -2.6043 0.3884 1.8110 1.0188 0.1270 -1.0516 1.4723 -1.4903 3.1808 3.9221 -1.5493 -2.7884 -3.4070 2.0093 -4.8338 -5.0098 3.1149 3.7987 5.2625 -1.2544 0.1337 -0.6322 -0.6277
3.1656 1.8768 -3.7866 5.2878 1.2930 -2.6920 -3.5975 -5.1216 5.1947 -1.9944 -3.7090 6.4592 -0.9679 2.6656 -2.3564 2.5335 0.6042 4.2932 4.6073 0.6156 3.6237 3.3786 2.4039 3.4076 -0.7609 -1.3748 -0.7096 0.5311 2.4514 0.3316 2.5236 -0.5993 1.8004 3.3944 2.1230 -1.3338 -1.6189 0.8919 -0.7838 -0.8736 0.2480 -3.0802 3.0263 1.5133 0.9834 -2.2073 -0.5762 0.9400 0.5723 1.1384 -1.6156 -2.7336 1.3462 -6.7684 -3.5286 0.9639 -5.6157 -1.3908 1.3466 -6.6916 -2.9243 0.6287 -4.4623 -0.7367 0.9882 -5.4452 -1.5051 -2.6990 1.8069 -2.9485 -1.2555 3.1071 -1.5505 -3.6664 2.8855 -3.0218 -2.1669 4.0924 3.7866 1.2960 -2.5389 -2.2928 -4.3663 5.1324 2.5588 1.3082 -0.3665 -1.4369 -0.4865 -0.2065 1.1037 1.7279 -0.4747 -1.4764 0.6820 -4.3638 2.9230 0.5505 1.9649 -2.1488 -1.5227 1.9227 -2.2672 -3.4092 3.9955 3.3594 1.0496 3.3111 -0.7698 1.2404 -1.9609
4.3210 0.7762 -2.8074 5.0855 -1.2878 -1.7251 -4.7911 -5.7240 4.4556 -5.1734 -6.4387 2.1112 -1.1065 2.2413 -1.3594 5.3882 5.8675 0.0632 5.4255 5.0162 2.0642 6.3435 3.9413 0.4016 -3.0871 0.6752 0.4638 1.7037 1.5106 1.4538 2.9244 4.6526 0.3076 4.0071 0.4203 -0.3352 -0.6966 0.8920 0.6464 -0.1166 -0.0751 -1.6137 4.0505 2.6514 0.5691 -1.7758 -1.1116 1.2164 0.9988 1.7420 -0.7770 -3.3505 -1.1724 -4.2322 -3.1004 -1.9072 -3.0044 -2.5457 -0.1509 -4.5753 -2.0811 -1.5539 -2.1999 -1.4352 0.2161 -3.7137 -3.9766 -1.8306 1.8711 -2.1195 -3.3786 1.8658 -4.8241 -2.9117 2.3509 -2.8959 -4.3712 2.3326 4.0220 -0.2159 -1.7072 -5.1620 -5.2653 3.0649 3.3191 1.7648 -0.3104 -2.0085 0.1637 0.7403 1.9244 1.6012 0.2507 -1.2376 -0.4194 -2.5429 3.9628 4.0238 0.4915 -2.6770 -2.0612 1.6058 -4.3114 -4.1358 2.5873 5.2748 4.7022 0.7516 -0.2788 1.1528 -0.7616
3.2880 3.5812 -3.0437 4.7125 1.9867 -4.2447 -4.9048 -4.2786 5.7436 -4.8568 -6.1634 4.1437 -1.3602 1.1705 -0.6199 4.6711 4.4300 2.7785 5.4262 2.4208 3.1410 5.9695 3.4795 1.3127 -0.1761 -0.8024 1.6946 2.4027 -0.2699 0.1249 2.6073 2.7898 1.9832 3.9938 1.4176 -1.9673 -0.0327 -0.9691 -0.6889 -0.1733 0.4482 -2.7042 4.0432 1.9320 0.3845 -1.8669 -1.8961 0.5009 0.8751 1.2420 -0.8242 -3.8215 0.6808 -4.9561 -3.1739 1.8761 -4.4493 -3.3083 -0.5303 -4.6755 -2.0490 1.7749 -3.7194 -2.0914 -0.6406 -3.8866 -2.0983 -2.7851 2.7164 -3.9207 -2.9759 1.1405 -2.9043 -3.4961 3.6900 -4.6713 -3.6330 2.0445 3.5871 2.1143 -3.2462 -5.0471 -4.6717 4.2909 3.1704 1.8297 -0.7680 -0.6800 -1.1983 0.6489 2.1327 0.7644 -0.4769 -1.4916 0.4660 -3.4095 3.7327 2.6668 1.5073 -2.5827 -2.5207 1.4880 -4.1471 -3.9116 3.3757 4.9471 3.2453 2.1746 -0.2018 0.4265 -1.2039
3.9675 2.5150 -2.6854 4.5135 0.1097 -2.7677 -0.9359 -4.3660 5.3892 -3.3196 -3.7747 5.5718 -0.4079 2.8418 -2.4650 4.4085 0.4803 3.5417 2.5759 1.5058 4.1355 2.8399 -0.6067 4.5924 -1.1399 -1.3897 -1.2362 0.8064 2.6305 0.0022 1.9701 -1.1533 2.1241 3.6669 1.1427 -0.6660 -1.6658 0.9578 -1.4678 -0.3769 0.6579 -3.6048 2.4589 0.9998 1.4252 -2.1161 -0.1906 0.5195 0.6803 0.9563 -1.6455 -3.4868 0.9532 -6.5325 -3.6400 0.1098 -5.3619 -2.3731 1.6909 -6.6885 -2.6667 0.0614 -4.4359 -1.3208 1.6384 -5.6874 -1.2506 -2.1079 1.6798 -2.6783 -0.5205 2.8155 -1.2132 -2.8934 2.8998 -2.6251 -1.2364 3.9518 3.5942 1.1461 -2.1754 -1.9360 -3.2361 5.2896 2.3586 0.7680 0.0028 -1.5598 -0.3535 -0.7368 1.1846 1.5832 -0.5097 -1.4740 0.8782 -4.5872 2.4385 -0.0377 2.3315 -1.9659 -0.9697 1.6305 -1.8894 -2.4937 3.9955 3.0625 0.3383 3.6423 -0.4845 1.3645 -2.2871
2.5217 4.7887 -0.5065 2.7468 4.3840 -2.9257 -3.6082 -5.7051 5.2445 -3.9379 -3.3594 6.0024 -2.0630 0.7777 -0.9875 5.1425 2.3709 3.1813 4.9547 0.2052 3.0252 5.6816 1.3656 1.3278 0.5029 -2.1819 0.0022 2.0469 -0.2589 -1.7429 2.4777 1.9689 2.5869 3.0547 2.5197 -1.3429 -0.7562 -1.1722 -1.7677 -0.4837 1.0619 -2.9066 3.1913 1.0390 0.5868 -1.8268 -2.3025 0.0597 0.1773 0.7281 -0.7238 -3.4515 2.1334 -5.7988 -3.2926 2.9063 -4.5808 -2.6909 1.0444 -6.0085 -2.3799 2.5361 -3.6644 -1.7071 0.6449 -5.0177 -1.0977 -3.0626 2.2179 -3.4499 -3.0785 1.6656 -1.4284 -3.5767 3.5307 -3.7610 -3.5536 2.8873 2.2899 3.7930 -1.6168 -3.0540 -4.3030 5.2257 2.2975 1.6855 -0.3385 -0.6040 -1.9106 -0.4568 1.5261 0.6023 -1.0432 -1.5907 1.3287 -3.8650 3.3657 1.5171 1.8692 -2.0628 -2.8105 1.3130 -2.7103 -3.8163 3.8633 4.7803 1.3659 2.3431 -0.8011 0.3246 -1.6384
2.7434 2.7474 -3.5874 4.7693 2.6927 -2.1892 -1.4305 -4.1788 6.3860 -2.3055 -5.9979 4.9636 -1.9592 2.5571 -1.8799 4.9528 1.6828 2.5846 3.1017 1.3171 3.6840 4.4738 -0.3246 3.2810 -0.5508 -1.2847 -0.3090 -0.1190 2.2502 0.7208 3.2835 -0.5747 0.9001 2.5474 2.8040 -1.1225 -2.0688 0.5960 -0.4232 -1.5093 0.2795 -2.8468 2.5302 1.6179 0.9990 -2.6845 -1.4452 0.6007 -0.0632 1.3368 -1.4448 -1.2577 1.9174 -6.8171 -0.3620 2.3867 -5.7769 -2.1459 0.9445 -6.5476 -0.4242 1.8515 -4.5452 -2.2369 0.3976 -5.2049 -1.4140 -2.2197 2.4799 -3.7618 -2.7690 2.3026 -1.3460 -3.0300 3.6799 -3.7057 -3.4995 3.4323 3.3309 2.2537 -2.2902 -2.4656 -4.5445 5.3460 1.9767 1.6519 -0.3280 -1.6534 -0.8054 -0.0688 0.4750 1.7962 -0.2490 -1.4403 0.8606 -4.2233 3.2288 0.5187 1.4552 -2.5681 -2.1094 1.7950 -2.4432 -3.6591 4.1449 3.9348 0.8005 2.7453 -1.4327 1.1819 -1.6472
3.7838 0.8489 -3.5214 4.9481 0.1733 -1.4647 -0.2264 -5.0426 4.8311 -2.2151 -4.1462 5.9940 -1.4701 2.8977 -2.2615 3.3966 0.3388 3.4773 1.7234 1.7370 3.5793 1.4389 -0.3497 4.1339 -2.3824 -1.2345 -0.8868 0.2382 2.8256 -0.1059 1.1374 -0.9067 1.5215 2.9260 1.5899 -1.3130 -2.4277 1.1741 -0.8018 -1.8059 0.5849 -3.1409 2.1620 1.0953 0.9533 -2.2944 -0.1048 1.1609 -0.2263 1.0415 -1.5622 -0.1310 1.6697 -6.9479 0.6826 1.7267 -5.7491 -1.4078 1.2546 -6.8723 0.1594 1.3562 -4.5682 -1.9846 0.8995 -5.5874 -1.8312 -2.3728 1.7867 -1.7694 -0.6043 3.4388 -1.4689 -3.3131 2.8269 -1.4176 -1.4740 4.4020 3.5988 0.4666 -2.0733 -0.9586 -3.7843 5.2373 1.8253 1.0321 -0.4425 -2.3348 -0.2095 -0.2174 0.5302 1.7721 -0.6583 -1.2428 0.9776 -4.4676 1.7182 0.1282 1.8327 -1.9670 -1.0653 2.0738 -1.2697 -2.8887 4.0897 2.0653 0.4655 3.2482 -1.5027 1.4407 -1.9451
3.6815 1.5625 -3.9105 4.1601 3.9803 -3.7872 -5.6783 -6.7315 3.5809 -6.0610 -4.9535 5.2631 -1.1904 1.4445 -0.7635 5.6736 3.2526 2.7590 6.1893 4.6318 1.1530 4.2093 4.7050 2.0616 -2.6740 -1.0414 0.1520 0.9109 2.4828 0.6591 5.4198 1.9037 0.2960 2.6470 2.9458 -2.1368 -0.3458 -0.5136 0.5372 -0.4261 -0.6493 -1.9558 3.4689 3.1384 0.1345 -1.4076 -2.3440 1.6162 1.0345 0.6861 -0.8486 -2.5957 0.9006 -5.3170 -3.2789 0.2023 -4.2440 -1.2592 1.0466 -5.2802 -2.5776 -0.2917 -3.2082 -0.5014 0.5229 -4.1564 -3.6831 -2.9778 2.0726 -1.8639 -4.0831 3.2146 -4.6147 -3.8322 2.7863 -2.7249 -4.8794 3.8755 3.8809 2.7358 -2.9836 -5.0219 -5.6792 4.4423 2.8185 2.2545 -0.8029 -1.6209 -1.3044 0.7228 1.4695 1.8613 -0.2395 -1.1366 -0.1010 -3.1474 4.7213 2.8564 0.6332 -2.3559 -3.0843 2.2762 -4.1588 -4.7567 3.6539 5.1872 3.8600 1.6460 -0.2957 0.2491 -0.7544
5.1430 1.9128 -2.4718 5.7774 1.1714 -0.2110 -1.2678 -4.7025 4.9763 -3.4321 -3.6413 5.4790 -0.6341 3.2893 -2.3011 3.8596 -0.7593 3.3781 1.9922 0.2832 3.8103 2.0093 -1.8863 3.6200 -0.7745 -1.0293 -1.1917 0.4178 2.2270 0.5006 1.8480 -1.5482 0.9547 3.4981 1.9858 -0.6211 -1.6017 1.2291 -1.3858 -0.4090 1.1796 -3.5908 2.5671 0.6499 1.1856 -1.9227 0.0167 0.5698 0.7440 1.5714 -1.7312 -3.6401 1.1440 -6.3858 -3.6504 0.2735 -5.2250 -2.6172 1.9954 -6.5797 -2.6474 0.3337 -4.3323 -1.5379 2.0662 -5.6102 -1.4162 -2.1184 1.5189 -2.3209 -0.3490 2.9002 -1.4366 -2.9857 2.6774 -2.3296 -1.1524 3.9790 4.6571 1.2247 -1.2199 -1.9942 -3.3803 5.0918 2.4098 1.0267 -0.1925 -1.3375 -0.0694 -0.6841 1.0669 1.6901 -0.3881 -1.5709 1.2942 -4.5085 2.2700 -0.6196 1.6362 -1.8263 -0.8426 1.6237 -1.9008 -2.5412 3.8615 2.5305 -0.7442 3.1047 -0.5229 1.8050 -2.2372
1.8557 4.3532 -0.6191 3.7460 4.4090 -2.1833 -2.9544 -3.6328 6.3454 -1.9877 -5.6966 5.3719 -2.1139 1.1804 -1.5201 5.4096 2.2481 2.6191 4.2444 1.2253 4.1452 5.0271 0.1071 2.4512 -3.2177 -1.7056 -1.0584 1.8035 -0.6398 -1.1642 2.3376 2.3403 2.5607 3.0533 2.2186 -1.2830 -1.0102 -1.0793 -1.7549 -0.2878 0.8118 -3.1843 3.0770 1.0053 0.8219 -1.4494 -1.7237 0.4709 0.0164 0.8424 -0.8562 -2.8252 2.0087 -6.4403 -2.2213 2.9805 -5.5486 -2.6335 0.6942 -6.2281 -1.4655 2.5673 -4.5162 -1.8046 0.2468 -5.1171 -3.1458 -2.8927 1.7059 -0.8971 -2.6815 2.5760 -3.5172 -3.5923 2.9240 -1.2483 -3.2924 3.7191 2.5685 3.5895 -1.7094 -2.9316 -4.5395 5.1381 2.2128 1.5515 -0.2144 -2.0404 -1.5396 -0.7614 1.3542 0.4515 -0.8283 -1.2513 1.1472 -4.2814 3.1908 1.6078 2.0617 -1.8767 -2.4827 1.5212 -2.6052 -3.7906 3.8950 4.4639 1.2905 2.8035 -0.8761 0.4118 -1.8620
4.1730 1.7323 -2.9201 5.5865 0.8432 -1.1128 -2.5726 -4.1536 5.7019 -0.2672 -3.2679 6.0008 -0.8329 2.9390 -2.4636 1.4975 -1.4420 3.8228 3.4684 -0.5222 3.9057 1.6804 0.7254 3.8838 -1.8013 -1.2396 -1.2649 0.4623 2.7678 0.1159 2.4199 -1.4471 1.2319 3.3847 1.8431 -0.5729 -1.8930 1.1706 -1.1205 -0.9002 0.5767 -3.3272 2.2030 0.8595 1.3218 -2.0753 -0.1540 0.7869 0.4028 1.1877 -1.6221 -2.6628 1.8958 -6.9916 -3.4928 1.4694 -5.8782 -1.3228 1.8643 -6.8816 -2.9254 1.0686 -4.7267 -0.7101 1.4343 -5.6373 -1.6218 -2.3960 1.5001 -1.9218 -0.6163 3.1156 -1.4438 -3.3212 2.6022 -1.8098 -1.4804 4.1380 4.1651 1.0312 -1.5835 -1.2765 -3.8024 5.0133 2.1759 1.0651 -0.1016 -1.8667 -0.2298 -0.5763 0.9035 1.7902 -0.4763 -1.4805 1.0919 -4.5894 2.2897 -0.4032 1.8654 -1.8081 -1.0858 1.7446 -1.5077 -2.8805 3.8727 2.2319 -0.3988 3.3620 -0.8514 1.4845 -2.1385
3.1027 0.6946 -4.1396 5.3689 1.4540 -3.5356 -5.4449 -6.2973 2.4213 -6.0270 -4.9602 4.4276 -1.0469 1.8135 -1.2418 4.4494 4.3086 3.0583 6.2620 3.8641 1.9307 4.7579 5.2048 1.0987 -2.7083 0.4584 1.0392 1.1302 3.1449 -0.1081 4.1038 1.8184 1.8102 3.4050 2.3794 -2.3588 -0.3217 0.5183 0.7755 -0.4285 -0.6364 -1.4176 3.8456 3.1070 -0.0989 -1.4004 -1.3226 1.8111 1.0995 0.9631 -0.9850 -2.8342 -0.7526 -4.9587 -3.4408 -0.8339 -3.6427 -1.4997 -0.6385 -5.0789 -2.6702 -0.7924 -2.5414 -0.6660 -0.5895 -3.8909 -3.6189 -2.2474 1.8190 -1.8399 -3.3423 3.0342 -4.5239 -3.2959 2.2561 -2.6710 -4.3265 3.4228 3.9902 1.1480 -3.0080 -4.9056 -5.4283 3.5320 3.1700 2.1086 -0.8895 -1.6291 -0.1015 1.1997 1.6849 2.1665 -0.5972 -1.2299 -0.6404 -2.6706 4.2523 2.8710 1.1955 -2.3293 -2.2491 2.2069 -4.0710 -4.3053 3.0252 4.9245 4.0606 1.8107 -0.2394 0.6760 -0.7113
4.4166 2.5807 -1.3060 3.0319 2.3674 -3.3334 0.1130 -4.5853 5.2649 -2.2630 -5.2833 5.1888 -1.3820 2.7687 -2.2072 4.3696 0.9636 2.8785 2.3657 1.4359 3.5990 3.2644 -0.4925 4.0634 -2.6959 -1.2774 -0.8165 0.2595 2.3922 0.0412 2.3423 -1.3384 1.6911 2.7780 0.7395 -1.5009 -2.4314 1.1182 -0.7137 -2.0013 0.5164 -3.0899 2.3115 0.8398 0.8907 -2.2759 -0.2085 1.2215 -0.2747 0.8105 -1.6075 -0.6735 1.8404 -6.9459 -1.9626 2.2490 -6.4187 0.1096 1.0065 -6.2390 -2.3712 1.8028 -5.2174 -0.3276 0.5285 -4.9396 -1.7018 -2.4791 1.7561 -2.1691 -0.8851 3.5134 -1.4556 -3.4826 2.7773 -1.9241 -1.8081 4.4603 3.0602 2.1866 -1.8357 -1.3182 -4.1065 5.2108 1.7524 0.5440 -0.4033 -2.4588 -0.2780 -0.1486 0.5026 1.3761 -0.6020 -1.5058 0.9359 -4.4329 2.5527 -0.1378 1.8318 -2.0713 -1.2322 2.1041 -1.5569 -3.1643 4.0830 3.1343 0.4411 3.0864 -1.5434 1.3154 -1.9036
4.6203 -0.4251 -2.4925 5.8993 1.5240 -3.2876 -5.8968 -5.3183 4.1602 -5.0262 -6.5373 2.1775 -0.9432 1.8088 -1.3450 4.9092 4.5551 2.7875 6.5426 4.4381 1.3480 4.6680 5.4002 0.7958 -2.8001 0.7491 0.9375 1.2060 3.1863 -0.4478 5.0169 1.9711 1.5686 3.7423 1.8524 -2.1291 -0.4089 0.5731 0.7638 -0.3996 -0.6577 -1.4108 3.8628 3.1166 -0.0824 -1.7003 -1.0977 1.8465 1.1561 0.8824 -0.9020 -3.6185 -1.0460 -4.2061 -3.8479 -1.1723 -2.7796 -2.3901 -0.7504 -4.6673 -2.8224 -1.0375 -1.9222 -1.2791 -0.6131 -3.7415 -3.9394 -1.9238 1.5865 -2.2450 -3.2911 2.6413 -4.9018 -2.9806 1.8292 -3.1381 -4.2698 2.8707 4.9925 1.0063 -2.1994 -5.4973 -5.2059 2.7096 3.2701 1.9539 -0.6954 -1.7859 0.0909 1.1449 1.7607 2.1109 -0.6485 -1.4894 -0.7507 -2.4197 4.6928 3.0168 1.0114 -2.6586 -2.0658 1.9765 -4.5265 -4.1070 2.4631 5.1939 4.3492 1.4762 -0.2184 0.6652 -0.7181
1.7510 4.6132 -0.8257 3.4709 4.7865 -2.5692 -2.6807 -6.5986 5.2351 -4.9772 -5.6755 5.0868 -2.0024 1.4817 -1.2037 5.9498 3.1661 2.2891 5.5326 1.1250 2.9165 6.1431 1.5341 0.8624 -1.7497 -0.0618 1.2768 1.9114 -0.3414 -1.1440 3.2202 2.9499 2.1894 3.0132 2.5558 -1.6241 -1.0349 -0.8262 -0.9074 -0.3646 0.5471 -2.8554 3.4901 1.4248 0.4725 -2.2698 -2.2151 0.5535 0.1770 1.1609 -0.6625 -2.8579 1.6712 -6.1555 -1.9309 2.6086 -5.5497 -2.9801 0.4286 -5.6548 -1.1968 2.2364 -4.4866 -2.1728 0.0198 -4.5147 -2.2229 -2.4812 2.9439 -3.0396 -4.2653 1.5305 -2.5495 -3.2914 4.1042 -3.3287 -5.0234 2.6029 2.4027 3.8949 -1.9830 -3.5045 -5.3387 5.1153 2.4279 1.9021 -0.3922 -1.7116 -0.9512 0.4353 1.5072 0.7622 -0.7903 -1.3335 0.8982 -3.9335 3.9323 2.1898 1.5350 -2.4671 -2.9385 1.7006 -3.0942 -4.5127 3.9472 5.3826 1.9972 1.8861 -0.8429 0.5667 -1.4309
2.4543 2.5963 -4.6140 4.6004 3.5084 -3.8097 -4.5694 -6.9945 3.7482 -5.9785 -5.2606 4.8315 -1.3276 1.6591 -0.9982 4.5805 2.5772 3.1909 6.1810 3.1731 1.8366 4.3732 4.3808 1.9893 -2.7605 -0.6660 0.3500 0.7415 2.9898 0.1462 4.3929 1.0514 0.8246 2.6759 3.3311 -2.2722 -0.4464 -0.0200 0.6221 -0.5557 -0.6040 -1.7986 3.5052 3.0158 -0.0232 -1.4492 -1.6459 2.0163 0.9039 0.9234 -0.9685 -1.9278 0.5391 -5.6952 -2.8680 0.2821 -4.6199 -0.6069 0.3992 -5.4839 -2.4188 -0.0992 -3.4113 -0.1196 0.0034 -4.1742 -3.3695 -3.0832 1.9230 -1.9178 -3.1136 3.8573 -4.1749 -4.1171 2.5470 -2.6488 -4.0890 4.4268 3.3904 2.6891 -3.4361 -4.5696 -5.6749 4.4816 2.7346 2.4085 -1.0787 -1.6966 -0.8037 0.9438 1.3391 2.1770 -0.5507 -0.9887 -0.2110 -3.1699 4.2273 2.2672 0.8780 -2.2950 -2.5772 2.5581 -3.8270 -4.6124 3.7509 4.8318 3.1029 1.9650 -0.4157 0.4974 -0.7830
2.3184 3.9947 1.8550 3.6626 4.6716 -0.0823 0.0024 -4.6955 5.2547 -2.4441 -5.0683 5.2822 -0.0575 -0.0691 -3.3675 5.0219 -0.6447 2.4421 3.8041 -2.1903 1.5089 4.6635 -0.5946 0.2959 -1.1492 -2.3809 -1.5256 -0.8885 1.8536 0.3969 2.4212 0.1448 2.8873 2.2847 2.6405 -0.2890 -1.9868 -0.1495 -1.7954 -1.1260 2.0336 -2.5552 2.2183 0.3731 0.5935 -2.3116 -1.3347 0.2141 0.1876 0.5866 -1.2430 -2.7240 2.8678 -6.4566 -3.6072 2.4705 -5.3741 -1.3990 2.9514 -6.2451 -3.1033 2.1877 -4.1574 -0.8590 2.6717 -4.9287 -1.3088 -3.1778 1.3511 -2.3746 -1.4125 2.6158 -1.0761 -3.8864 2.5922 -2.1629 -2.0714 3.7703 2.3723 4.0132 0.3459 -1.3509 -4.0456 5.0784 1.4943 1.6237 0.5052 -1.7144 -1.4112 -1.0329 0.1269 1.3943 -0.1202 -1.6695 2.2917 -3.9243 2.8409 -0.0461 1.7487 -1.9101 -1.9737 1.3550 -1.4924 -3.3644 3.7620 4.0763 -0.8603 1.4906 -0.7796 0.6066 -2.2484
4.7519 4.0102 0.1362 5.0334 3.6992 -2.2763 -2.9169 -6.1586 4.4283 -4.3714 -4.3910 5.4103 -0.5433 -0.4639 -2.3390 5.2335 -1.0556 1.5164 3.5392 -1.1478 2.8832 3.2395 -1.4773 0.7471 -0.6207 0.5563 1.5357 0.2066 3.2250 -0.3107 4.4831 1.5715 1.9483 3.3739 2.3224 -1.0999 -1.6331 0.9320 -0.5996 -0.9092 1.9755 -2.7595 2.5320 1.0372 0.8131 -1.7443 -1.2013 0.4962 0.6376 1.1353 -1.2812 -3.5143 1.1496 -6.0600 -4.0243 1.7435 -4.8376 -2.2099 0.8415 -6.1644 -3.1970 1.9831 -3.8042 -1.3098 1.1278 -5.0620 -1.2087 -2.1598 2.6137 -3.2330 -2.8385 1.4805 -1.5592 -3.0455 3.7066 -3.5366 -3.6954 2.4762 4.0327 3.6844 -1.1496 -3.0340 -4.6967 4.7811 2.3540 2.2311 0.0165 -1.2518 0.0897 0.5910 0.9418 2.2650 -0.5323 -1.7887 1.6378 -3.9122 3.7023 0.7447 1.4845 -2.0393 -2.0085 1.5652 -2.6770 -3.7936 3.6514 3.9219 -0.7269 1.6500 -0.6607 0.8978 -1.7431
0.0472 3.9718 2.0384 2.2647 4.9626 2.4654 -3.3231 -7.4284 4.0261 -5.4570 -6.1982 3.7289 -1.9378 0.8545 -0.4274 6.9500 3.2660 -1.0305 6.4638 1.8264 0.5274 6.3469 1.2446 -1.5721 -0.0297 -1.2940 1.3902 2.1770 -0.1104 -0.3055 4.3138 3.6361 -1.5014 2.0981 2.6713 1.5563 -0.3006 -0.9506 -0.9678 -0.4492 1.0098 -2.4593 3.8277 1.9620 0.0216 -1.6160 -2.5413 0.2077 0.2755 1.2627 -0.2805 -3.8600 2.6464 -4.4947 -3.7677 1.2187 -4.2468 -2.8615 3.4609 -4.1096 -2.6889 0.7096 -3.6229 -1.7068 2.9145 -3.4193 -1.8909 -3.2495 2.4848 -2.9356 -4.4928 0.6944 -2.4988 -4.1611 3.4348 -3.4949 -5.3445 1.5738 1.4766 4.0486 1.5609 -3.9721 -6.0672 3.9708 2.4125 2.2521 0.1330 -0.6259 -1.5852 0.3585 1.6397 0.9893 -0.2138 -1.6328 1.5970 -3.1549 4.6663 2.7099 -0.7759 -2.0907 -3.4034 1.1620 -3.2934 -5.1595 3.0058 6.0969 2.2593 -0.7059 -0.6233 0.5119 -1.0526
2.7927 3.8568 -3.6571 5.1029 3.3742 -2.9357 -4.7209 -3.6121 5.5761 -4.2239 -5.7363 4.4107 -1.1760 1.7368 -0.6343 6.0545 2.2328 2.5342 4.0766 2.0695 3.4418 5.3805 0.3276 3.3502 0.0412 -0.6338 1.1860 1.1152 1.9476 0.8519 4.4865 -0.0756 0.8511 3.2566 3.3333 -1.2922 -0.1522 -0.5494 -1.1978 -0.5925 1.1576 -2.9484 3.7995 2.1369 0.7219 -1.7287 -1.7329 0.1270 1.0009 1.4290 -1.4374 -4.1138 -0.1010 -4.9900 -4.1379 1.0610 -4.1206 -3.0068 -0.8604 -5.0692 -3.0442 1.3943 -3.4129 -1.8190 -0.4873 -4.3230 -1.9911 -2.2149 2.4648 -3.5507 -3.1232 0.8571 -2.7347 -2.8734 3.5193 -4.2543 -3.7201 1.8370 3.6481 3.0413 -2.7207 -4.6718 -4.3051 4.2334 3.0967 2.0345 -0.5318 -0.5959 -0.9393 0.1835 1.6266 1.7900 -0.2507 -1.8422 0.5819 -3.5067 4.4025 1.0539 1.3222 -2.3736 -2.3305 1.1789 -3.8338 -3.5950 3.2266 4.9741 1.4208 2.6563 -0.2911 0.9105 -1.5016
1.5601 3.6502 -4.1044 3.7615 4.5239 -3.4210 -4.3116 -7.4323 3.6050 -5.9081 -5.8437 4.6371 -1.5332 1.6093 -0.8371 6.0117 2.1008 2.2211 6.3764 3.6958 0.7839 4.7606 3.8821 2.2369 -2.8828 -0.9167 0.3388 0.5322 2.7792 0.7366 4.7861 1.2915 -0.1313 2.1192 3.8401 -1.7050 -0.6375 -0.1055 0.7439 -0.6508 -0.5852 -1.7009 3.2915 3.0153 0.2582 -1.6201 -1.7603 2.1148 0.7214 0.9761 -0.7598 -1.4475 0.7110 -5.7108 -2.5337 0.4605 -4.7805 -0.1750 0.4899 -5.3354 -2.2676 0.0284 -3.5348 0.1140 0.0422 -3.9843 -3.3859 -3.3805 1.9014 -2.0005 -3.3414 3.8809 -4.1134 -4.5019 2.4705 -2.6605 -4.3921 4.4021 2.6642 3.5458 -3.0827 -4.4519 -6.1313 4.3578 2.3836 2.6582 -0.8034 -1.8519 -0.9684 0.9999 1.0977 2.1812 -0.1726 -0.8880 -0.1401 -3.1049 4.4761 2.3342 0.4393 -2.3814 -2.7991 2.5849 -3.7660 -4.9989 3.6743 5.3946 3.0051 1.4173 -0.5839 0.4767 -0.6360
3.2623 3.1232 -0.4509 5.0373 1.9701 -1.6847 0.5054 -3.6162 5.4232 -1.8682 -4.3413 5.5666 -1.7246 2.5712 -2.1520 3.4820 0.4839 4.1966 2.0640 -1.1629 4.1067 3.8079 -1.1501 2.7958 -3.0391 1.0781 0.4114 0.4996 -1.0121 -1.2570 1.4298 1.4234 2.6676 3.1061 0.6385 -0.9158 -2.2760 0.2154 -1.7009 -0.6405 0.7445 -3.4878 1.9784 -0.1668 1.0825 -2.2497 -1.1124 0.2215 -0.1715 1.2381 -1.2391 -2.2086 2.2129 -7.2202 -1.5527 3.0926 -6.2729 -2.3802 0.9142 -6.9146 -1.1048 2.6055 -5.1039 -1.9201 0.3959 -5.6308 -1.8597 -0.7197 2.5505 -1.4272 -2.8946 1.5736 -1.5308 -1.2728 3.8492 -1.1124 -3.4064 2.7750 3.5506 1.9988 -1.4167 -0.9352 -3.1847 5.2926 1.8287 0.6543 -0.1041 -2.5256 0.1663 -0.2228 0.6573 0.1609 -0.9373 -1.3308 1.2150 -4.7365 2.0310 0.4028 2.3379 -1.8127 -1.4987 1.4545 -1.1942 -2.5709 3.9654 2.8479 -0.3619 3.3412 -1.2236 1.1654 -2.1638
1.1603 4.4536 -2.4472 3.3198 5.5321 -1.9490 -5.1312 -3.7719 4.9862 -3.7707 -5.8320 4.7829 -1.2975 0.9965 -0.6499 4.6880 1.5052 3.0950 6.0331 0.0856 2.1396 6.5022 2.2137 2.1169 0.5792 -1.3573 1.1418 0.8484 1.4930 1.0062 5.2482 1.0818 -0.3532 2.4160 3.8300 -0.4096 0.2499 -0.9791 -1.1914 -0.4417 0.5403 -2.9611 3.5358 2.0794 0.8483 -1.3404 -2.1766 0.0840 0.9215 1.2159 -1.3319 -4.3231 0.8014 -4.7248 -3.8136 -0.4678 -4.2382 -3.6077 1.9262 -4.5479 -2.6187 -0.5247 -3.6234 -2.3092 1.8631 -3.9009 -1.6479 -2.7502 2.3942 -3.2862 -3.4062 0.7389 -2.4448 -3.4158 3.4054 -4.0211 -4.0349 1.6734 2.5341 4.2491 -1.8564 -4.4851 -4.7393 4.0232 2.6936 2.3494 -0.2870 -0.1453 -1.4881 0.1611 1.3890 1.6192 -0.0866 -1.8395 0.6883 -3.4428 4.7615 1.4669 0.7064 -2.0470 -2.7416 1.1085 -3.5883 -4.0406 3.0631 5.4851 1.3212 2.0114 -0.2066 0.4142 -1.4850
0.8889 4.8126 -3.2023 3.2134 5.4840 -2.7131 -3.9553 -7.5313 3.5043 -5.6717 -6.0569 4.5153 -1.6499 1.6935 -0.8184 6.0197 0.9437 1.3739 6.5740 2.9897 0.8709 4.9741 2.6129 2.3022 -2.8747 -0.9102 0.2879 0.6753 2.4409 1.1415 4.8162 1.6484 -1.0861 1.9071 4.2412 -1.0252 -0.6572 -0.0329 0.6975 -0.6989 -0.4624 -1.7373 3.3562 2.8017 0.2961 -1.6084 -1.6880 2.0882 0.6065 1.1625 -0.8308 -1.4482 0.8074 -5.7561 -2.5428 0.4744 -4.8628 -0.1752 0.6730 -5.3433 -2.2859 0.0531 -3.6120 0.1027 0.2324 -3.9881 -3.2593 -3.4190 1.8244 -1.9195 -3.3029 3.8328 -3.9253 -4.5881 2.3738 -2.5223 -4.3956 4.3355 2.1652 4.4210 -2.5018 -4.1963 -6.2427 4.2531 2.2587 2.8267 -0.6361 -1.8494 -0.9212 0.9595 1.0776 2.1573 0.0189 -0.9127 -0.0194 -3.1418 4.5418 2.1668 -0.0066 -2.3071 -2.7801 2.5311 -3.5749 -5.0650 3.5849 5.5155 2.1816 1.1342 -0.6580 0.5907 -0.6642
3.1054 2.4709 -4.5773 5.4501 2.4639 -3.8263 -6.9487 -4.2356 2.7717 -5.3372 -5.1960 4.3867 -0.8255 1.7116 -0.9476 6.2209 3.6222 1.9488 4.2116 4.2481 2.5266 5.1412 2.5355 3.4980 -1.5555 0.5524 1.8070 1.3352 3.1839 -0.1487 4.2769 1.0447 1.4433 3.6546 3.1132 -2.2597 0.3731 0.0176 0.4908 -0.0141 -0.4752 -1.9149 4.0770 2.9376 0.1159 -1.2166 -1.6500 1.0979 1.3950 1.1151 -1.2641 -3.7518 -1.4305 -3.7605 -3.1966 -0.0951 -3.8731 -3.1111 -2.3673 -3.0390 -2.0411 0.2039 -3.2551 -1.8732 -2.0357 -2.3567 -3.2944 -1.7561 2.3052 -2.4468 -3.7088 1.1603 -4.4019 -2.5589 2.7919 -3.4716 -4.4552 1.6112 4.0233 2.2052 -3.4095 -5.5546 -4.7893 2.9486 3.4174 2.3053 -1.0014 -0.9264 -0.3005 1.1883 1.9320 2.2709 -0.7086 -1.3761 -0.7872 -2.4227 4.4178 2.2502 1.2618 -2.3474 -2.3011 1.5176 -4.4911 -3.8636 2.4664 4.9942 3.1616 2.3023 0.1558 0.5919 -0.8749
1.6881 4.5206 -3.3685 4.0978 4.8632 -2.9490 -4.8750 -5.9873 4.5817 -6.1774 -5.8662 2.4696 -1.2315 1.5581 -0.6964 7.2368 2.1937 1.3392 5.7083 3.4570 2.2373 5.6003 1.2876 2.4568 -1.5649 0.1893 1.9249 1.1174 2.3369 1.0560 5.5415 1.6782 -0.6997 2.6386 4.0407 -1.1391 0.1770 -0.2963 0.3598 -0.1706 -0.2854 -2.0718 3.8237 2.6812 0.4970 -1.3727 -1.9584 1.0123 1.0120 1.3162 -1.0624 -3.6502 -0.6161 -4.5309 -3.4693 -1.4709 -3.3718 -2.7388 0.3300 -4.8188 -2.3917 -1.3176 -2.5824 -1.5639 0.4827 -3.9788 -3.2209 -2.1166 2.5305 -2.3766 -4.0999 1.4367 -4.2468 -2.9291 3.1513 -3.3326 -4.8563 2.0073 2.8973 4.0103 -2.6263 -5.3921 -5.0815 3.4919 2.8680 2.6597 -0.5754 -1.0329 -0.6284 1.1814 1.5714 2.0985 -0.0570 -1.4105 -0.2913 -2.8886 5.0972 2.1785 0.3295 -2.3112 -2.6716 1.7082 -4.3174 -4.2476 2.8923 5.9047 2.2823 1.5858 -0.1329 0.5561 -0.8327
0.6461 5.3835 -1.1044 2.9430 6.2790 -0.9970 -4.7841 -6.7202 3.9610 -6.2324 -6.1550 2.0230 -1.0493 1.5258 -0.2085 7.5391 2.4260 -0.4551 6.4931 2.8303 1.4104 6.5805 0.7957 0.6262 -1.2918 -0.3205 2.1032 1.6432 1.5349 1.4764 5.1617 2.3469 -1.7359 2.3747 4.1920 0.1944 0.2624 -0.6125 0.3061 -0.2427 -0.0421 -2.0259 4.0744 2.4537 0.3100 -1.3057 -2.2965 0.8482 1.1485 1.2073 -0.8003 -3.9664 0.1910 -4.1120 -3.7161 -0.8644 -3.1470 -3.0366 1.1376 -4.3318 -2.5561 -0.8949 -2.4674 -1.7764 1.0952 -3.6105 -3.0273 -2.6325 2.4887 -2.4367 -4.4107 0.9606 -4.0528 -3.4925 3.0466 -3.3879 -5.2108 1.4770 2.1089 5.0236 -1.0373 -5.3189 -5.6078 3.0930 2.7839 2.8021 -0.2272 -0.8878 -1.0198 1.1801 1.7901 1.7930 0.2869 -1.5587 0.1379 -2.6899 5.1771 2.3214 -0.5084 -2.2450 -3.0654 1.4821 -4.2411 -4.7326 2.5578 6.4384 2.0971 0.2693 -0.0515 0.5041 -0.6426
3.6025 5.4000 1.4208 1.1494 5.5164 1.2175 -5.1067 -6.7985 1.2553 -4.5081 -6.5367 3.6449 -1.9236 2.3148 -0.6867 6.6767 2.8165 0.2654 6.0239 0.7792 0.6966 7.1504 1.2014 -1.1186 -3.2832 0.2116 1.1466 1.8101 1.0568 0.9962 4.8157 1.8882 -2.2594 2.4531 4.2065 -0.4154 -0.9971 0.9118 1.1246 -0.3642 0.4021 -1.2746 3.8826 2.2567 -0.1661 -1.5710 -1.3648 1.4165 0.2539 2.3433 -0.1754 -3.2371 -0.5339 -4.3122 -3.2601 -1.2194 -3.0328 -2.2791 0.3735 -4.5743 -2.3290 -0.9388 -2.1038 -1.2811 0.6860 -3.5667 -3.5893 -2.6398 1.6628 -1.4419 -3.7528 1.6169 -4.2217 -3.9278 1.8701 -2.0256 -4.9497 1.8123 2.3613 4.6362 1.0323 -4.0152 -6.4050 2.2227 2.5820 2.7047 -0.6031 -2.0992 -0.1033 1.2056 1.5329 1.9155 0.1635 -1.3241 0.0793 -2.3663 4.9036 1.9474 -1.0375 -2.2522 -2.5462 1.5374 -3.4727 -5.0449 1.9522 6.1818 1.6866 -0.3010 -0.7977 1.4271 -0.2664
1.2903 6.0274 -0.1803 3.7359 6.1879 -0.3414 -4.7639 -6.3880 3.7958 -3.7763 -7.2705 1.6972 -1.8685 2.2688 -0.9593 7.0225 1.2667 -1.0284 6.3182 1.7629 0.9700 5.7613 -0.1396 0.0543 -3.4779 0.3065 0.8165 1.5061 1.3359 1.4896 4.6686 2.1358 -1.9791 2.6970 4.1360 0.5574 -1.2244 1.0713 1.0961 -0.2031 0.3544 -1.1042 3.7404 1.9946 0.1403 -1.8234 -1.1741 1.5557 0.2138 2.4031 -0.1392 -2.5375 -0.9143 -4.4538 -2.8208 -1.4136 -3.1212 -1.4809 -0.1088 -4.6629 -2.0431 -1.0461 -2.0886 -0.6533 0.3058 -3.5440 -3.7940 -2.5164 1.3072 -1.8417 -3.4239 2.4063 -4.4595 -3.7890 1.5001 -2.4557 -4.6092 2.5794 2.5567 5.2524 -0.4501 -4.5010 -6.1098 2.3359 2.5640 2.7894 -0.1241 -2.3170 0.0394 1.1086 1.3995 2.0515 0.4980 -0.9542 -0.1082 -2.2999 4.7346 1.8188 -0.7956 -2.5329 -2.3303 1.7413 -3.8220 -4.8046 2.1118 5.9511 1.1800 -0.1998 -0.8088 1.4579 -0.2897
2.0423 5.1578 2.4885 3.7556 5.9521 0.9042 -6.0090 -6.8474 1.1769 -4.9908 -7.1067 3.4227 -0.7395 1.8536 2.4349 4.6153 1.0432 -3.8899 6.0267 2.4897 -3.0748 5.5463 0.6828 -1.9550 -2.4285 -0.4778 2.1749 2.3277 0.5701 1.1486 3.1796 3.1826 -2.7212 3.3419 3.5313 1.1598 -0.3146 -0.1672 1.0301 -1.6396 1.7857 0.1318 3.7473 2.0880 -0.7553 -1.5079 -2.2406 0.9628 0.5603 2.0255 0.6071 -1.2315 0.6575 -3.9959 -0.3239 1.6192 -3.4009 -2.2443 0.1506 -3.2706 -0.5007 2.0013 -2.1249 -2.3996 0.5226 -1.8749 -3.5320 -3.1612 1.8797 -1.8615 -4.6239 0.9332 -4.3682 -4.3226 2.1314 -2.6482 -5.6980 1.1337 2.7051 4.9010 1.1584 -4.7227 -6.8099 1.9667 2.7302 2.6919 0.0633 -1.5387 -0.9514 1.4744 1.8758 1.6029 0.6726 -1.5368 1.3845 -1.3073 3.8799 2.3920 -2.0940 -2.3081 -3.2960 1.3313 -3.9533 -5.5504 1.7625 5.0120 1.6513 -2.7424 -0.5465 1.3156 1.0578
0.6158 6.0511 -2.5024 2.9428 5.5532 -3.1366 -5.1255 -6.6895 2.7281 -4.2121 -6.0662 4.9404 -2.3521 2.6031 -0.1460 5.9726 1.8690 -0.0856 4.7367 1.5320 1.6812 5.2369 -0.1310 0.3686 -3.2529 -0.0403 0.7990 0.6068 3.0064 1.1718 3.2496 0.6478 -1.2702 2.0227 4.6579 -1.0260 -0.9538 0.6890 0.6314 -1.7420 0.8330 -1.7550 3.1072 2.6699 -0.1387 -1.5357 -1.3783 1.6370 -0.2399 2.3384 -0.9140 1.3093 -1.4895 -3.6853 0.7540 -1.9127 -2.4131 0.8549 -0.3725 -4.2805 -0.2244 -1.1942 -1.8356 -0.1855 0.4157 -3.6446 -3.5273 -2.6878 1.9416 -1.3658 -3.5985 2.5277 -4.1403 -3.9105 2.4220 -1.9319 -4.7367 2.9678 1.7077 5.0110 -2.4612 -3.9070 -6.1843 3.4659 1.9488 3.1608 -0.8359 -2.0652 -0.2663 1.0058 0.7199 2.8094 -0.0319 -0.6920 0.0337 -2.4578 3.6720 1.4479 -0.4408 -2.1906 -2.5299 1.9855 -3.3780 -4.9032 2.9202 4.8976 1.1837 0.3790 -1.3334 1.5786 -0.5117
2.2169 4.9855 2.0872 4.0808 5.9190 0.7658 -4.8367 -7.4670 1.3357 -6.5646 -5.8255 0.6434 0.1769 1.5974 2.8527 5.2176 0.4721 -2.6353 3.9755 0.8767 -4.3765 5.5067 2.3068 -3.7772 -0.9502 -1.2552 3.3167 2.8681 0.5581 1.2227 2.6817 2.8871 -2.9404 3.6972 3.4807 0.8009 0.2805 -0.4457 1.4157 -1.3617 1.4005 0.9296 3.7576 1.9638 -1.1028 -1.4789 -2.0157 1.1695 0.8891 1.7109 0.6857 -1.8121 1.0344 -3.3303 -1.6782 -0.1455 -2.4983 -1.8128 2.2568 -2.7694 -1.5671 -0.0117 -1.1665 -1.6732 2.3979 -1.3302 -3.0194 -3.2656 2.5232 -2.7352 -3.7960 0.1813 -4.0277 -4.3083 2.6014 -3.6833 -4.7483 0.2472 3.0338 4.8367 0.8277 -5.3998 -6.0856 1.5683 2.9127 2.5702 -0.1101 -0.7797 -1.2732 2.1030 2.2556 1.4776 0.6954 -1.5440 1.3059 -0.5544 3.5579 2.1796 -2.4502 -2.3720 -3.0319 1.3664 -4.3594 -5.0222 1.5086 4.5616 1.4584 -3.2987 -0.0142 1.0216 1.4921

>  <OB_ATOM_TYPES> (1bmaA1)
C.3 C.3 C.3 C.3 C.3 F F F O.2 O.2 O.2 C.3 C.3 C.3 N.am N.am N.am C.ar C.ar C.ar C.ar C.ar C.ar C.ar C.ar C.ar C.3 C.3 C.3 C.2 C.2 C.ar C.2 C.ar C.ar C.3 N.4

>  <ENSEMBLE_RMSD> (1bmaA1)
1.135 1.174 1.266 1.588 1.731 1.764 1.850 1.924 2.101 2.104 2.111 2.132 2.321 2.400 2.415 2.601 2.663 2.686 2.785 2.860 2.911 2.940 2.988 3.006 3.006 3.036 3.049 3.058 3.065 3.066 3.097 3.115 3.126 3.127 3.192 3.193 3.208 3.213 3.293 3.340 3.379 3.451 3.535 3.620 3.763 3.796 3.937 4.090 4.177 4.299

$$$$
