
 OpenBabel03071213D

 38 40  0  0  0  0  0  0  0  0999 V2000
   30.7730   65.1480    8.0400 C   0  0  0  0  0
   31.1220   67.5450    8.6510 C   0  0  0  0  0
   30.5750   61.6910    2.2590 C   0  0  0  0  0
   34.3580   59.4410    3.8250 O   0  0  0  0  0
   34.6210   64.6530    2.4930 O   0  0  0  0  0
   32.9680   62.3310    6.2910 O   0  0  0  0  0
   32.5810   67.6660   11.2140 O   0  0  0  0  0
   34.7280   65.2450    7.6940 O   0  0  0  0  0
   31.4050   63.3940    4.0810 O   0  0  0  0  0
   32.3220   61.1080    4.0020 O   0  0  0  0  0
   32.9250   61.4650    9.4930 C   0  0  0  0  0
   35.4060   60.2890    4.2820 C   0  0  0  0  0
   34.3050   61.3000    8.9460 C   0  0  0  0  0
   32.6900   62.9450    9.6590 C   0  0  0  0  0
   35.4540   62.6050    3.3400 C   0  0  0  0  0
   35.1990   62.1830    5.7990 N   0  0  0  0  0
   33.7680   66.9870    9.4460 N   0  0  0  0  0
   33.2020   62.8630    2.3380 N   0  0  0  0  0
   37.1990   73.1710   11.6110 C   0  0  0  0  0
   35.9560   73.3010   12.3350 C   0  0  0  0  0
   37.4430   72.0010   10.8110 C   0  0  0  0  0
   34.9430   72.2750   12.2620 C   0  0  0  0  0
   35.7850   68.7480    9.8930 C   0  0  0  0  0
   36.7550   69.7900    9.9520 C   0  0  0  0  0
   34.2130   70.0440   11.3720 C   0  0  0  0  0
   31.7930   66.2700    8.1690 C   0  0  0  0  0
   34.8940   61.7220    4.4500 C   0  0  0  0  0
   34.5310   62.5540    8.1060 C   0  0  0  0  0
   32.9160   65.8570    9.1460 C   0  0  0  0  0
   33.6690   63.5550    8.7410 N   0  0  0  0  0
   34.3940   63.4640    2.6940 C   0  0  0  0  0
   34.1510   62.3430    6.6380 C   0  0  0  0  0
   33.5470   67.8210   10.4700 C   0  0  0  0  0
   33.8450   64.8570    8.4600 C   0  0  0  0  0
   34.5360   68.8900   10.5870 C   0  0  0  0  0
   36.4610   70.9540   10.7180 C   0  0  0  0  0
   35.1640   71.1030   11.4660 C   0  0  0  0  0
   31.9200   62.2980    3.3010 S   0  0  0  0  0
  1 26  1  0  0  0
  2 26  1  0  0  0
  3 38  1  0  0  0
  4 12  1  0  0  0
  5 31  2  0  0  0
  6 32  2  0  0  0
  7 33  2  0  0  0
  8 34  2  0  0  0
  9 38  2  0  0  0
 10 38  2  0  0  0
 11 13  1  0  0  0
 11 14  1  0  0  0
 12 27  1  0  0  0
 13 28  1  0  0  0
 14 30  1  0  0  0
 15 27  1  0  0  0
 15 31  1  0  0  0
 16 27  1  0  0  0
 16 32  1  0  0  0
 17 29  1  0  0  0
 17 33  1  0  0  0
 18 31  1  0  0  0
 18 38  1  0  0  0
 19 20  2  0  0  0
 19 21  1  0  0  0
 20 22  1  0  0  0
 21 36  2  0  0  0
 22 37  2  0  0  0
 23 24  2  0  0  0
 23 35  1  0  0  0
 24 36  1  0  0  0
 25 35  2  0  0  0
 25 37  1  0  0  0
 26 29  1  0  0  0
 28 30  1  0  0  0
 28 32  1  0  0  0
 29 34  1  0  0  0
 30 34  1  0  0  0
 33 35  1  0  0  0
 36 37  1  0  0  0
M  END
>  <MOLID> (1bmqB1)
1bmqB1

>  <SMILES_CANONICAL> (1bmqB1)
OC[C@@H](NC(=O)[C@@H]1CCCN1C(=O)[C@H](C(C)C)NC(=O)c1ccc2c(c1)cccc2)CC(=O)NS(=O)(=O)C	

>  <FINGERPRINT> (1bmqB1)
0000000000000101100000000000000000000101000000000111110000000000000000000001000000000001000000000000010100110001000001100000000000000000000100000000000010000000000000000000000000000000000100000000000000000000000000000000000000100010000000000001000000001000000000000000000000000000000000000000000001000001000010011100000000000000001000000010000000000000010000000000000110110000000000000000111000000000100010000001001000000000000000000010000000000001100000001101100000000100000000000000000000001000000000000000100000010010000000000000000000000000000000100000000000000000000000010000000001000000000000000001000000000000000000000101001000000011000000000000000000000000000000000011100000001110100001100010100000000011000000000000000000000011000100100101000000000000000111000000001000000000000100000000000011000000000000000000000000001000000000000000000000000000000000001001000000000000000000000000110000001000000000000000000100000000000000000000011000000000000100011010000000000100010000000000000000000000000000010010001001110000

>  <MACCS166> (1bmqB1)
000000000000000000000000010000011000000000000000011011100101100000100000111100110110100111111111101001011101111100001101110110000111000111111100111111101111111110111000

>  <OB_MW> (1bmqB1)
546.215

>  <OB_logP> (1bmqB1)
2.7196

>  <OB_PSA> (1bmqB1)
170.36

>  <OB_MR> (1bmqB1)
145.268

>  <OB_ATOMIC_CHARGES> (1bmqB1)
0.0022748412 0.0022748412 0.2017407976 -0.2184880922 -0.271597862 -0.2715520018 -0.2683572242 -0.2730104109 -0.1527207588 -0.1527207588 0.0237287687 0.2040643795 0.0310290992 0.0939367138 0.11279816 -0.202590432 -0.1940760862 -0.0630814402 0 7.3e-09 1.47e-08 1.8349e-06 0.0045647644 0.0001467896 0.004564757 0.0289183788 0.1373964338 0.1535443169 0.171475016 -0.2715616132 0.2640759198 0.2594866041 0.2651702316 0.2458141375 0.0550512036 3.6625e-06 0.000144962 0.0775500446

>  <MCT_HBD> (1bmqB1)
4

>  <MCT_HBA> (1bmqB1)
11

>  <ENSEMBLE_TOTAL> (1bmqB1)
49

>  <ENSEMBLE_COORDS> (1bmqB1)
-3.2406 -0.3751 0.3286 -2.8916 2.0219 0.9396 -3.4386 -3.8321 -5.4524 0.3444 -6.0821 -3.8864 0.6074 -0.8701 -5.2184 -1.0456 -3.1921 -1.4204 -1.4326 2.1429 3.5026 0.7144 -0.2781 -0.0174 -2.6086 -2.1291 -3.6304 -1.6916 -4.4151 -3.7094 -1.0886 -4.0581 1.7816 1.3924 -5.2341 -3.4294 0.2914 -4.2231 1.2346 -1.3236 -2.5781 1.9476 1.4404 -2.9181 -4.3714 1.1854 -3.3401 -1.9124 -0.2456 1.4639 1.7346 -0.8116 -2.6601 -5.3734 3.1854 7.6479 3.8996 1.9424 7.7779 4.6236 3.4294 6.4779 3.0996 0.9294 6.7519 4.5506 1.7714 3.2249 2.1816 2.7414 4.2669 2.2406 0.1994 4.5209 3.6606 -2.2206 0.7469 0.4576 0.8804 -3.8011 -3.2614 0.5174 -2.9691 0.3946 -1.0976 0.3339 1.4346 -0.3446 -1.9681 1.0296 0.3804 -2.0591 -5.0174 0.1374 -3.1801 -1.0734 -0.4666 2.2979 2.7586 -0.1686 -0.6661 0.7486 0.5224 3.3669 2.8756 2.4474 5.4309 3.0066 1.1504 5.5799 3.7546 -2.0936 -3.2251 -4.4104
3.2479 1.2602 -0.5499 2.1066 -0.7003 -1.4673 -3.7517 -3.5987 -5.7643 0.9402 -5.8292 -3.8493 -0.2414 -3.2479 -5.6351 -2.3216 -2.8929 -1.1777 0.8605 0.6309 3.5926 -0.9750 0.1135 0.1628 -2.4797 -1.4292 -6.4644 -4.1661 -1.3115 -4.5852 0.5991 -3.7836 2.1134 1.0234 -5.2214 -2.5696 -0.8929 -3.7860 1.8191 1.0610 -2.3601 1.8513 0.2853 -2.9780 -3.3139 -0.1759 -3.7642 -1.0669 1.0507 1.4798 1.4482 -1.9359 -2.5118 -4.1837 0.7724 7.9803 4.0454 1.1657 7.7871 2.7736 0.4533 6.8430 4.8900 1.2874 6.4412 2.2409 0.3258 3.2072 4.6825 0.2206 4.4365 5.2207 1.1196 4.0186 2.5107 1.9163 0.5502 -0.6375 -0.0596 -4.1727 -2.4484 -1.1146 -2.6275 0.8646 1.3602 0.2433 0.7472 0.0614 -1.7930 0.9682 -0.6189 -2.9463 -4.5094 -1.2793 -3.1072 -0.5626 0.9185 1.5813 2.8163 0.0207 -0.4570 0.6079 0.7809 2.9852 3.3104 0.5526 5.5916 4.4054 0.9985 5.3781 3.0135 -3.1161 -2.0094 -5.2994
-1.2497 -0.9491 4.4766 -0.9461 -2.4364 2.5539 -2.8499 -4.1821 -7.4933 1.7147 -4.8683 -1.2262 -0.2962 -5.9061 -5.3840 -0.5619 -2.7617 -0.8611 -1.1084 2.8599 1.7380 1.5052 -0.4126 1.1129 -4.1428 -3.6442 -5.2968 -3.1840 -5.9598 -5.6139 -2.1269 0.2519 -1.7159 1.9772 -4.5128 -2.5751 -0.7865 0.1524 -2.4263 -1.7807 0.3468 -0.2410 0.7770 -3.8963 -4.6468 0.7635 -2.4179 -2.7289 0.0096 1.2077 2.9140 -1.5969 -3.9594 -5.1739 2.8826 7.6998 4.8751 1.8616 8.0971 4.0951 3.1345 6.2852 5.0852 1.0027 7.1149 3.4579 1.7552 3.0634 4.0778 2.5722 3.9410 4.6908 0.3782 4.7941 3.0232 -0.4559 -1.1655 3.2087 0.7680 -3.8025 -3.1380 0.1468 -0.5098 -1.4222 -0.5606 0.0334 2.2769 -0.4314 -0.1731 -0.1325 -0.3926 -4.7193 -5.0969 0.0577 -2.0127 -1.6113 -0.2503 2.5089 2.5427 0.2958 -0.1978 1.0433 0.6404 3.4877 3.2341 2.3460 5.3644 4.5011 1.2231 5.8009 3.6461 -3.0912 -4.5224 -5.7694
3.0488 1.3252 -0.7671 1.9486 -0.7711 -1.3802 -1.3085 -1.9928 -7.4025 -1.8119 -6.6470 -2.1407 -1.4708 -1.8046 -3.9726 -2.3624 -2.2311 -0.8223 1.9670 1.4042 3.4360 -1.0995 0.2175 0.6115 -3.3132 -3.0298 -6.0896 -1.8904 -4.5300 -7.5438 0.9534 -3.7505 1.8569 -0.6583 -5.8465 -2.3369 -0.5658 -3.7935 1.9250 1.2945 -2.2868 1.6508 -0.1185 -3.5652 -3.0683 -0.8544 -3.9866 -0.8163 1.0311 1.6998 1.3395 -0.9015 -3.6124 -5.3587 0.5884 8.1369 4.8842 1.3840 7.4405 5.7157 0.0620 7.5129 3.6831 1.7256 6.0612 5.4164 0.1873 4.2960 1.9694 -0.1464 5.5794 2.2043 1.5785 4.0929 3.9770 1.7499 0.5559 -0.6826 -1.0339 -4.3885 -2.1905 -1.0400 -2.5756 1.1463 1.3074 0.3934 0.7657 0.1152 -1.7058 1.0418 -0.9225 -2.8878 -4.1326 -1.4994 -2.9040 -0.2614 1.4162 2.1096 2.5961 -0.0232 -0.3442 0.8148 1.0688 3.5396 2.8571 0.3698 6.2348 3.3946 1.2482 5.4715 4.3051 -2.0239 -3.4175 -6.6250
-1.3820 0.6113 5.3353 -0.9531 -1.7863 5.1729 0.6455 0.3819 -6.6333 -1.2413 -5.6188 -3.3085 0.4081 -0.6858 -3.3927 -1.0303 -2.0954 -0.7085 -1.8691 1.4811 1.0952 1.3053 -1.2803 2.2740 -1.5960 -0.6050 -5.7270 -0.4701 -1.7228 -7.6958 -2.1616 -4.2707 1.9816 0.0879 -5.1230 -3.3264 -0.8418 -4.7268 1.3849 -1.8942 -2.8847 2.5337 1.2366 -2.9364 -3.2695 0.3285 -3.8840 -1.2584 -0.2249 0.9367 2.6285 0.5903 -1.9366 -5.3707 2.5923 7.3029 1.8821 2.9753 6.5188 2.9058 1.5641 6.8478 0.9634 2.3564 5.2200 3.1101 -0.5675 3.9376 0.4304 -0.0317 5.1552 0.2211 0.7515 3.4956 2.4479 -0.5685 -0.4362 4.6101 0.1150 -3.7578 -2.6794 -0.0744 -3.4548 1.0583 -0.7606 -0.3294 3.1009 -0.6634 -2.4409 1.9118 0.6776 -1.7347 -3.9644 -0.3357 -3.0528 -0.3787 -0.8616 1.7688 1.7359 0.0841 -1.3776 2.3915 -0.1773 3.0883 1.5559 0.9876 5.6434 1.1351 1.3986 4.7878 2.2689 -0.3998 -1.0361 -6.4219
3.6928 -0.5088 0.7906 2.5079 -2.6451 0.8893 -0.8123 -0.4697 -6.9049 -1.2687 -5.9990 -2.4174 -1.4033 -0.9777 -3.7718 -2.9157 -2.0383 -0.9987 0.4783 1.1083 3.9402 -0.6209 0.0072 0.4466 -2.5007 -2.3934 -6.3844 -0.4165 -2.9136 -7.7159 -1.3693 -3.6430 3.1286 -0.2461 -5.0168 -2.4538 -2.2314 -3.7055 1.8799 -0.2498 -2.6669 2.8105 0.0611 -2.6002 -2.7902 -1.0797 -3.4450 -0.8281 1.4959 0.8250 1.8790 -0.2006 -2.3999 -5.2014 0.7782 8.0481 2.8992 -0.0766 7.5722 3.8221 1.5628 7.1342 2.0889 -0.2338 6.1404 4.0046 2.0730 3.5497 1.6989 2.2251 4.8678 1.4758 0.3463 3.8426 3.4182 2.3284 -1.1559 0.7019 -0.8704 -3.6576 -2.2398 -1.9627 -2.3955 1.1630 1.3396 -0.6052 1.7213 -0.6233 -2.0210 1.5675 -0.6158 -1.9024 -3.9300 -2.0508 -2.6033 -0.3327 0.9850 1.5641 2.9206 -0.0698 -0.8057 1.1881 1.1165 3.0262 2.6712 1.4340 5.8054 2.2542 0.4815 5.2816 3.2557 -1.0882 -2.2031 -6.6468
-1.0026 0.6453 5.6477 -0.6583 -1.7512 5.3278 0.9286 -0.8052 -7.6869 -1.8746 -5.0879 -3.3233 -0.1191 -0.7234 -4.4049 -1.3009 -1.8121 -0.5334 -1.8868 1.7196 1.5022 1.2981 -1.1485 2.2388 -1.3623 -1.8654 -7.0140 0.4056 -3.3297 -8.0732 -2.2234 -4.0771 2.1978 -0.5053 -4.7185 -3.3747 -0.9714 -4.5263 1.4643 -1.9114 -2.6912 2.7276 0.8210 -2.6177 -3.2629 -0.0622 -3.6193 -1.2673 -0.1224 1.0750 2.8505 0.7560 -2.4959 -5.6726 2.7626 7.4105 2.0850 3.2298 6.5754 3.0304 1.6347 7.0184 1.2587 2.6027 5.2820 3.2411 -0.6060 4.1761 0.8238 -0.0669 5.3914 0.6122 0.9003 3.6207 2.6746 -0.2999 -0.3834 4.7913 -0.3330 -3.3921 -2.6687 -0.2260 -3.2534 1.0954 -0.6465 -0.1992 3.3173 -0.7195 -2.2573 2.0278 0.3909 -1.8350 -4.4653 -0.6135 -2.8030 -0.3004 -0.8174 1.9586 2.0568 0.0931 -1.2298 2.4773 -0.1234 3.2708 1.8662 1.0504 5.8192 1.4368 1.5546 4.9069 2.4847 0.0243 -2.2473 -7.1882
-0.6121 0.4682 5.7205 -0.3526 -1.8973 5.1642 -1.5380 -2.6488 -7.2326 -1.9779 -5.0549 -3.4179 0.0631 -0.8307 -4.5898 -1.2902 -1.7485 -0.6855 -1.9719 1.8676 1.8194 1.2537 -1.0288 1.9142 0.7585 -3.3502 -8.2443 0.4176 -0.9456 -7.5445 -2.3970 -3.8620 2.0704 -0.5853 -4.7814 -3.4121 -1.1649 -4.4127 1.3735 -1.9908 -2.4994 2.5995 0.8317 -2.7335 -3.3426 -0.1260 -3.6373 -1.3358 -0.0611 1.1226 2.8879 0.6543 -2.7863 -5.7508 2.7831 7.4878 2.2777 3.3481 6.5802 3.0939 1.5621 7.1631 1.5624 2.7351 5.2755 3.2766 -0.7490 4.3704 1.1766 -0.2226 5.5966 0.9978 0.9571 3.6675 2.7875 -0.0252 -0.4919 4.7109 -0.3617 -3.4433 -2.7455 -0.3243 -3.2016 1.0031 -0.5334 -0.1859 3.3068 -0.7632 -2.1583 1.9078 0.4463 -1.9937 -4.5867 -0.6564 -2.7635 -0.4090 -0.8404 2.0633 2.2538 0.0927 -1.1459 2.3072 -0.1595 3.3851 2.0820 0.9887 5.9553 1.7156 1.6009 4.9626 2.6227 0.2105 -2.3642 -7.3349
-1.4431 0.3925 5.4495 -1.0152 -1.9970 5.1828 -1.0381 -0.8980 -6.8875 -1.0359 -5.4370 -3.5363 1.6679 -2.3725 -5.5079 -1.0187 -2.1367 -0.6917 -2.2006 1.4526 1.4186 1.2310 -1.2631 2.2800 0.9976 0.5662 -6.1527 -1.2740 1.0240 -5.1444 -2.0243 -4.4668 1.9525 0.2842 -4.9182 -3.4739 -0.6712 -4.8186 1.3573 -1.8910 -3.0475 2.4698 1.3415 -2.6754 -3.1609 0.3858 -3.8654 -1.2970 -0.3988 0.8397 2.7320 -0.0117 -1.1086 -4.4581 2.5804 7.0599 1.5314 3.0672 6.2652 2.5013 1.4133 6.6516 0.7699 2.4212 4.9993 2.8023 -0.8993 3.8417 0.5667 -0.3446 5.0326 0.2732 0.6656 3.3495 2.3863 -0.6466 -0.6246 4.6646 0.2460 -3.6159 -2.7115 0.0014 -3.4930 1.0410 -0.8726 -0.4664 3.1640 -0.6602 -2.5339 1.9041 1.0387 -2.0733 -4.4996 -0.2947 -3.0817 -0.3878 -1.1032 1.6932 1.9146 0.0194 -1.4396 2.4096 -0.3935 2.9800 1.6341 0.8118 5.4769 1.0321 1.3371 4.6095 2.1063 -0.2726 0.0987 -5.6349
-1.3440 0.0790 5.7539 -1.3986 -2.2819 5.1507 -0.5364 1.1110 -6.1639 0.8160 -5.4098 -3.6421 -0.7560 -0.5012 -3.1030 -1.4026 -2.2503 -0.8361 -1.6649 1.4485 1.3611 1.0630 -1.4886 2.3517 -1.9401 -1.0694 -5.8597 -0.0361 -1.0566 -7.5233 -2.7062 -4.0757 1.6297 1.5722 -4.2947 -3.1991 -1.4050 -4.6724 1.1240 -2.3099 -2.7973 2.3417 1.1833 -1.8911 -2.8494 0.5268 -3.5019 -1.1706 -0.3548 0.7492 3.1405 0.5080 -1.0203 -5.0088 2.5574 7.0368 0.7839 1.2588 7.1974 0.4717 3.0253 5.7787 1.3372 0.3109 6.1233 0.7063 1.7042 2.4987 2.2224 2.6066 3.4854 2.0646 -0.1970 3.8582 1.4674 -0.7477 -0.9570 4.8278 0.6333 -3.2770 -2.5937 -0.4424 -3.5028 0.9960 -0.9291 -0.5645 3.3665 -0.9792 -2.4727 1.8648 0.1847 -1.0870 -3.6235 -0.5170 -2.9929 -0.4236 -0.6914 1.5786 2.0954 -0.1600 -1.5351 2.4793 0.2843 2.6905 1.9382 2.1606 4.7690 1.5463 0.7290 4.9550 1.2260 -0.6060 -0.6592 -6.2504
-1.1506 -1.0717 4.4444 -0.9613 -2.4497 2.4283 -3.1787 -6.4760 -5.0266 1.8964 -4.5896 -1.6182 0.1097 -5.7333 -5.5359 -0.5294 -2.5428 -0.9815 -1.2071 2.8876 1.8791 1.3960 -0.3568 0.9812 -2.5045 -5.1645 -7.1822 -4.1249 -4.1053 -5.5558 -2.3792 0.4256 -1.6331 2.0968 -3.9578 -2.8732 -1.0797 0.4090 -2.4217 -1.9590 0.4583 -0.1752 0.6383 -3.5058 -4.8259 0.6430 -2.0204 -2.9076 0.0031 1.1860 2.8949 -1.6523 -4.3264 -4.8913 3.0969 7.5220 4.9118 2.4866 7.8711 3.7651 2.9290 6.1840 5.4514 1.6696 6.9074 3.0497 1.1643 3.0927 4.6534 1.9523 3.9465 5.3343 0.7117 4.6725 2.8307 -0.4420 -1.2070 3.1163 0.7751 -3.3912 -3.3270 -0.0499 -0.2204 -1.4948 -0.6123 0.0376 2.2541 -0.5796 0.0130 -0.1647 -0.2839 -4.6461 -5.1320 -0.0297 -1.7159 -1.7395 -0.3190 2.5002 2.6319 0.1891 -0.1167 0.9756 0.5580 3.4477 3.3732 2.1655 5.2841 4.8045 1.5122 5.6619 3.5339 -2.9507 -4.9097 -5.8275
3.7853 0.5856 -0.1504 2.5486 -1.3596 -0.9673 -1.5992 -0.8550 -7.1586 -1.0490 -6.1677 -2.3233 -1.6675 -1.1117 -3.6324 -2.7183 -2.6201 -0.5955 1.3098 0.6126 3.7836 -0.6233 0.0815 0.2301 -3.4058 -2.1978 -5.8387 -1.9411 -3.4147 -7.4985 0.0996 -3.4841 3.0315 -0.1037 -5.1471 -2.6001 -1.0379 -3.7991 2.0775 0.9099 -2.3932 2.3545 0.0022 -2.7261 -3.0407 -0.6145 -3.5551 -0.8536 1.5035 1.2463 1.5650 -0.9070 -2.5909 -5.2915 0.4215 7.8823 3.2966 0.9768 7.5815 2.1090 0.0912 6.8317 4.2437 1.2615 6.2009 1.7680 0.2723 3.1987 4.4818 0.0016 4.4662 4.8466 1.2590 3.8357 2.3286 2.3995 0.0053 -0.3338 -0.7205 -3.8081 -2.2702 -1.2193 -2.5316 1.2607 1.6619 -0.0721 0.9923 0.0668 -1.8638 1.3003 -0.9617 -2.0538 -3.9710 -1.6056 -2.9010 -0.1539 1.2682 1.4666 2.9034 0.2434 -0.5795 0.8005 0.9120 2.8766 3.2097 0.3394 5.5465 3.9346 0.9615 5.2192 2.6362 -2.1209 -2.4051 -6.4748
-2.9553 1.4198 1.9670 -2.7651 -0.6258 0.6366 -4.1023 -3.9496 -3.5930 1.3149 -6.1291 -0.0366 -1.6984 -6.1288 -3.9956 -0.7042 -2.6705 -1.1559 0.2056 3.5300 -0.0544 0.7219 -0.7948 1.2990 -2.9612 -3.9056 -5.9422 -2.9445 -1.8121 -4.5249 0.4589 0.0540 -3.2680 1.5775 -6.0480 -1.4293 1.5787 -0.9004 -2.8880 0.0118 0.6736 -1.9562 0.4686 -5.2339 -3.4933 1.2726 -3.6786 -1.8157 -0.0853 1.8844 1.5453 -1.4682 -3.7973 -3.8464 2.2106 6.2226 6.5000 1.5406 5.1089 6.8463 2.4007 6.5545 5.0992 0.9929 4.2367 5.8227 1.5972 5.1975 1.8128 2.1003 6.0445 2.7305 0.6177 3.6855 3.4745 -1.9941 0.3524 1.4941 0.6878 -4.9814 -2.0177 1.2873 -1.3176 -1.4537 -0.8300 0.9546 0.7243 0.4445 -0.2587 -0.9333 -0.9977 -5.1427 -3.8045 0.4837 -2.6017 -1.4596 0.2815 3.1363 1.1062 0.2013 -0.1105 0.4184 0.8448 4.0009 2.1824 1.9065 5.7502 4.1404 1.1600 4.5343 4.5212 -2.8614 -3.2535 -4.6525
-2.0099 0.3453 5.3158 -2.4874 -1.9074 4.4962 0.9370 -4.3378 -6.5622 2.0780 -0.4231 -1.6720 -0.0756 -1.1103 -5.8452 0.9920 -3.3954 -0.8121 -0.7027 1.6191 0.8297 0.6175 -1.6708 2.3995 -1.3865 -3.4167 -7.3166 -1.2998 -5.4462 -5.8114 -3.3147 -2.8903 0.2467 0.8336 -0.0661 -2.2526 -2.1982 -3.9133 0.1151 -2.8292 -1.8979 1.2866 -0.9641 -1.0623 -3.6232 -0.6011 -1.8060 -1.3604 -0.3677 0.8470 2.9895 -0.6837 -3.1474 -4.8446 3.3460 7.1565 2.3186 2.4345 7.2726 1.3362 3.4199 5.9364 3.1038 1.5158 6.1831 1.0572 1.7658 2.6912 3.3189 2.6291 3.6814 3.6171 0.6470 3.9517 1.5356 -1.4980 -0.7659 4.4267 0.0612 -1.3295 -2.5469 -0.9389 -3.2079 0.5884 -1.2737 -0.2901 2.9957 -1.3850 -2.0240 1.2939 -0.5230 -1.7310 -4.8884 -0.0757 -2.8259 -0.5948 -0.1904 1.7213 1.9403 -0.5673 -1.3904 2.2169 0.7460 2.8317 2.2814 2.5746 4.9187 2.8559 1.5675 5.0504 1.7817 -0.7931 -4.1507 -6.2171
0.1653 -0.1821 5.6379 0.0542 -2.5695 5.0946 0.2892 1.2549 -5.8110 -0.3180 -5.2766 -4.1536 0.4455 -0.1405 -2.6833 -1.3983 -2.0318 -0.8722 -1.7013 1.3390 2.0789 1.3174 -2.0298 1.8059 -1.7942 0.1660 -4.6794 -0.9917 -0.7405 -6.8984 -3.0795 -3.5637 1.6082 0.7828 -4.6574 -3.5095 -2.0956 -4.4804 0.9006 -2.2223 -2.6126 2.4223 1.3399 -2.3518 -2.8738 0.0717 -3.7643 -1.3846 0.2995 0.3760 2.7369 0.4209 -1.1699 -4.7917 1.7682 7.2451 0.5877 0.4243 7.2433 0.5338 2.4877 6.0484 0.9861 -0.3193 6.0465 0.8816 1.7715 2.6171 1.9825 2.5004 3.7099 1.6881 -0.3860 3.7196 1.6043 0.4781 -1.2126 4.5779 0.2908 -3.4357 -2.7690 -0.8049 -3.6845 0.7964 -0.2107 -0.8696 3.2676 -0.9175 -2.6436 1.7935 0.6888 -1.1089 -3.3926 -0.7673 -3.0371 -0.5653 -0.4891 1.3984 2.2610 0.1657 -1.8966 2.2180 0.3100 2.6186 1.9506 1.8110 4.9300 1.3038 0.3343 4.9316 1.2541 -0.7214 -0.1846 -5.5882
0.0518 0.2155 5.6173 0.0829 -2.2006 5.2262 -1.5107 -0.5603 -5.8446 -0.5882 -5.3258 -3.8887 0.1449 -0.2947 -2.7765 -1.4573 -2.1011 -0.6936 -1.7620 0.8751 1.2462 1.2141 -1.7747 1.8606 0.6997 -0.4237 -7.2216 0.3387 1.2108 -5.3273 -3.0366 -3.6789 1.8672 0.5787 -4.7132 -3.3640 -1.9835 -4.5515 1.2049 -2.2621 -2.5901 2.5894 1.2447 -2.4256 -2.7216 0.0189 -3.8224 -1.1943 0.0371 0.6108 2.6808 0.8139 -1.2711 -4.8035 2.1273 7.1297 1.2003 2.5805 6.5260 2.3134 1.1620 6.4592 0.3485 2.0955 5.2077 2.6815 -0.6427 3.2958 0.1904 -0.2378 4.5279 -0.1722 0.6808 3.2594 2.2499 0.3928 -0.8554 4.6080 0.1746 -3.4846 -2.5854 -0.7666 -3.6583 1.0288 -0.3551 -0.6442 3.2989 -0.9574 -2.5674 1.9588 0.6600 -1.2210 -3.3896 -0.7996 -3.0836 -0.3660 -0.7386 1.3021 1.7746 0.0687 -1.7091 2.3061 -0.1833 2.6431 1.4152 0.7116 5.2333 0.6724 1.1957 4.5768 1.9041 0.2066 -0.1158 -5.8945
-0.2303 -0.4171 5.4132 -0.2919 -2.7892 4.8056 -1.1737 0.8656 -5.2368 0.1625 -5.3456 -4.4544 1.6559 -0.8857 -4.7946 -1.2333 -2.1737 -1.1569 -1.8317 1.1809 1.7216 1.1898 -2.1803 1.6343 0.6679 1.8654 -3.6773 -1.6364 1.4284 -2.7343 -3.1580 -3.7437 1.0537 1.1764 -4.6379 -3.7590 -2.1027 -4.6828 0.4903 -2.3948 -2.7679 1.9316 1.5164 -2.3461 -2.9047 0.1846 -3.9423 -1.6666 0.1080 0.2103 2.5312 -0.1125 -0.5655 -3.2897 1.7355 7.1297 0.6141 0.4002 7.1297 0.4525 2.4193 5.9235 1.0454 -0.3677 5.9241 0.7095 1.6279 2.4785 1.9376 2.3757 3.5759 1.7161 -0.4908 3.5776 1.3799 0.1551 -1.4180 4.3492 0.5396 -3.5000 -2.9954 -0.8075 -3.8851 0.4927 -0.4437 -1.0473 3.0002 -1.0218 -2.8358 1.4711 1.0600 -1.2146 -3.7765 -0.6663 -3.2192 -0.8554 -0.6388 1.2413 2.0047 0.0105 -2.0618 1.9666 0.1751 2.4733 1.7761 1.7198 4.7995 1.2868 0.2525 4.7997 1.1120 -0.5309 1.0562 -3.5946
-2.9341 1.9487 1.7721 -2.8773 0.3431 -0.0799 -4.1775 -4.1769 -5.3771 0.6613 -5.9129 0.0644 -2.2100 -5.3331 -2.8257 -0.7404 -2.0576 -1.3521 0.3343 4.1261 0.1536 0.5507 -0.3370 1.4809 -3.5019 -6.6929 -5.1943 -2.8693 -5.3987 -7.2693 1.3978 0.3580 -3.0225 0.9805 -5.8266 -1.3163 2.2088 -0.7609 -2.3881 0.7121 1.0569 -1.8609 0.0754 -4.7584 -3.3629 1.1026 -3.4228 -1.6148 -0.1289 2.3438 1.5517 -1.6522 -4.8858 -5.0594 2.3950 5.9236 6.9926 1.6526 4.8228 7.2072 2.6196 6.4013 5.6403 1.0589 4.1120 6.0887 1.7625 5.4859 2.2187 2.3091 6.1875 3.2289 0.6710 3.8580 3.6903 -2.0796 0.9209 1.0659 0.3106 -4.5981 -1.8783 1.4776 -1.1084 -1.0998 -0.7484 1.4742 0.5697 0.7256 0.0922 -0.7792 -1.3749 -5.0217 -3.6654 0.4775 -2.2168 -1.3691 0.3480 3.6016 1.2637 0.2436 0.3299 0.4922 0.9351 4.3029 2.4435 2.0838 5.7457 4.5945 1.2557 4.5456 4.8304 -3.0554 -5.4720 -5.8343
-1.0161 0.0454 5.3050 -0.8319 -2.3633 4.9036 -0.9514 0.4975 -5.4490 1.0696 -5.4064 -4.0504 2.0047 -0.8042 -4.5628 -1.0803 -2.2468 -1.1544 -2.4579 1.2470 1.5424 0.9903 -1.7840 1.8466 0.5558 1.8345 -3.7836 -1.7727 1.1596 -3.0650 -2.8689 -4.2760 1.5211 1.8877 -4.5155 -3.3113 -1.8471 -4.7275 0.4942 -2.4794 -2.8638 1.9071 1.8222 -2.1635 -2.6032 0.5861 -3.8470 -1.3892 -0.4565 0.4932 2.4311 0.0426 -0.6438 -3.2889 2.6132 6.5286 0.7020 3.2273 5.6852 1.5511 1.2943 6.2101 0.1846 2.5703 4.4586 1.9682 -1.1980 3.5607 0.4315 -0.6333 4.7186 0.0399 0.6594 2.9370 1.9030 -0.4450 -0.9990 4.3747 1.0162 -3.4405 -2.7072 -0.6495 -3.8010 0.6409 -0.9135 -0.7860 2.9416 -1.0965 -2.7248 1.5048 1.3347 -1.1577 -3.6002 -0.4276 -3.1912 -0.7211 -1.2652 1.4049 1.7887 -0.2245 -1.7966 2.0441 -0.5477 2.6489 1.3718 0.6784 5.0726 0.5554 1.3459 4.1540 1.5002 -0.5361 0.8824 -3.7675
-2.0299 0.8868 5.0319 -2.9655 -1.2095 4.2080 1.4602 -6.3271 -4.8020 -0.9759 0.8812 -2.8925 -0.4653 -2.6798 -6.0770 0.8025 -2.8163 -1.2638 -1.2566 2.0749 0.4657 0.4886 -1.0189 2.1140 3.0418 -4.2906 -4.4385 1.6966 -4.4393 -6.5737 -3.2324 -3.2012 0.5361 -1.7285 -0.2131 -3.3926 -1.9115 -3.9391 0.3971 -2.8988 -1.9009 1.2438 -1.5268 -2.6158 -3.9380 -1.2579 -1.8449 -1.6766 -0.7269 1.3552 2.5986 0.4957 -3.9226 -4.3262 3.6322 6.7616 3.3727 3.2721 6.0363 4.4467 3.0816 6.4510 2.0657 2.3202 4.9473 4.3094 0.7935 4.0644 0.5333 1.6563 5.0935 0.6241 0.8375 3.5742 2.9341 -1.7836 -0.2742 4.0935 -1.0115 -1.5010 -3.0548 -0.8401 -2.8686 0.4773 -1.5513 0.1607 2.6484 -1.4672 -1.7222 1.1005 -0.4613 -3.0359 -4.9047 -0.3311 -2.5087 -0.9023 -0.6284 2.1952 1.5138 -0.7261 -0.9069 1.9439 0.3718 3.2898 1.6988 2.2066 5.4390 1.9232 1.7991 4.6515 3.1044 1.8203 -4.6260 -5.1421
-1.1920 -0.3355 5.4793 -0.9815 -2.6800 4.8215 0.8902 1.9313 -2.7604 -1.4759 -5.1863 -4.1494 1.1654 -1.6637 -5.5030 -0.9215 -1.9956 -1.0311 -1.9901 1.4520 1.7510 1.1649 -1.7707 1.9640 -1.2009 1.1708 -4.1133 1.0485 1.2514 -5.2679 -2.6576 -4.2912 1.2834 -0.0999 -4.8738 -3.9990 -1.3837 -4.8810 0.7042 -2.2198 -3.0495 2.0330 1.3123 -2.9107 -3.4702 0.0173 -3.9872 -1.7462 -0.2016 0.4349 2.8135 0.5880 -0.5817 -3.4964 2.0282 7.0980 0.6520 0.7175 7.1600 0.3567 2.5929 5.8891 1.2250 -0.1435 6.0190 0.6103 1.5103 2.5580 2.2351 2.3418 3.5967 2.0295 -0.4730 3.7350 1.4027 -0.5118 -1.2762 4.5122 0.0251 -3.6342 -3.1451 -0.4042 -3.7222 0.5919 -0.7853 -0.8675 3.0708 -0.8960 -2.7352 1.5339 1.0119 -1.6917 -4.2879 -0.4888 -3.1207 -0.7969 -0.8255 1.4583 2.1376 -0.0532 -1.8138 2.1334 0.0838 2.6221 1.9220 1.8065 4.8237 1.4636 0.3661 4.8931 1.1418 0.2348 0.9749 -4.1014
-0.2972 0.0988 5.4012 -0.3762 -2.3081 4.9611 -0.5282 0.9372 -4.9559 -1.9483 -5.1283 -4.0049 1.2522 -1.9569 -5.4472 -1.0563 -2.0085 -1.0310 -1.5729 0.7905 0.7482 1.2420 -1.7103 1.7175 2.0665 0.8326 -4.6774 0.6490 1.5541 -2.7123 -2.8362 -3.9275 1.4412 -0.5393 -5.0289 -3.8751 -1.6568 -4.7033 0.8797 -2.2197 -2.7347 2.1464 1.1563 -3.2856 -3.4624 -0.2354 -4.0802 -1.6649 -0.0996 0.5953 2.5261 0.6138 -0.9089 -3.4473 1.8210 7.2685 1.6162 2.1271 6.6403 2.7655 1.0530 6.5817 0.5937 1.6803 5.2776 2.9985 -0.5081 3.3381 0.0304 -0.1215 4.6033 -0.2176 0.4852 3.2716 2.2689 0.0757 -0.9748 4.4057 -0.2149 -3.7900 -3.0771 -0.5593 -3.6717 0.6638 -0.5158 -0.7021 3.0284 -0.8931 -2.5968 1.5776 1.0186 -2.0186 -4.2464 -0.6611 -3.1365 -0.7503 -0.7185 1.2657 1.4922 0.0559 -1.7058 2.0439 -0.2027 2.6533 1.2853 0.6390 5.3172 0.7935 0.9619 4.6312 2.0618 0.8638 0.7202 -3.8771
-3.4251 0.9736 3.0192 -3.1750 -1.4253 3.3649 2.9413 -2.0752 -4.9627 -2.6232 0.5285 -3.1698 -0.2580 -2.7435 -5.8089 0.0044 -1.7201 -0.8784 -0.7261 1.5977 -0.0655 0.5638 -1.1983 3.1544 2.2002 -4.5435 -5.3893 3.1784 -3.9242 -3.1432 -0.7661 -4.6808 1.0302 -2.8304 -0.7917 -3.6492 -2.0338 -3.9858 0.5613 -0.0687 -3.6756 1.9267 -1.6157 -2.9495 -3.8487 -2.1427 -2.0191 -1.6783 -0.5636 1.0599 2.1833 0.8206 -3.0947 -3.7527 3.0560 6.9302 3.2643 2.2368 6.4885 4.2352 3.0849 6.2657 1.9732 1.3588 5.3579 3.9923 1.5094 3.4363 0.2956 2.3115 4.5047 0.4666 0.4926 3.6130 2.5223 -2.4120 -0.1213 3.2699 -1.7866 -1.6884 -3.0343 -1.7302 -2.4960 0.6284 -1.3712 -0.1441 2.1593 -0.6654 -2.3969 1.6128 -0.3156 -2.9034 -4.5954 -1.1686 -2.0377 -0.7009 -0.3062 1.8228 1.0653 -0.3806 -1.2759 2.3692 0.5969 2.9745 1.3386 2.2863 5.2082 1.7390 1.3690 4.7387 2.7978 2.3540 -3.6092 -4.2925
-2.6525 0.2302 5.3297 -2.4110 -2.1266 4.7271 1.4938 -3.3786 -6.6465 1.7939 0.0600 -1.5661 -0.3120 -0.6227 -5.5824 1.3156 -2.8943 -0.5264 -1.4293 1.6903 1.0581 0.5579 -1.4765 2.7417 -0.9923 -3.0094 -7.3535 -0.3751 -5.1055 -6.0836 -3.0174 -3.4078 0.5269 0.4476 0.1969 -1.9949 -1.7048 -4.1579 0.3723 -2.7453 -2.3379 1.5678 -1.1617 -1.0692 -3.3903 -0.6318 -1.8078 -1.1584 -0.7794 0.8969 3.1341 -0.3690 -2.8527 -4.8475 3.7207 6.4609 1.4631 3.1781 6.1979 0.2608 3.2861 5.7253 2.6370 2.1647 5.1662 0.1250 0.9082 3.1094 3.5241 1.8669 4.0400 3.6881 0.7479 3.4279 1.0977 -1.7664 -0.7633 4.6134 -0.0874 -1.1751 -2.3324 -0.6284 -3.1905 0.8304 -1.5311 -0.3452 3.1671 -1.3111 -2.1293 1.5380 -0.5786 -1.4478 -4.7175 0.1287 -2.6268 -0.3505 -0.7119 1.7465 2.0520 -0.6394 -1.3646 2.4797 0.3522 2.7805 2.2133 2.3408 4.7738 2.5269 1.7565 4.4722 1.2032 -0.2240 -3.6854 -6.3275
-2.5670 0.7118 2.5336 -2.7438 -0.2037 0.2743 -4.5232 -5.6680 -3.7115 2.5501 -5.1095 -1.4280 -1.3584 -5.7078 -2.5556 -0.5437 -2.0691 -1.4373 -0.4269 4.1833 1.0335 1.2745 0.0632 0.7263 -2.9090 -7.6022 -4.4051 -3.9566 -6.1703 -6.2036 -0.4135 0.9070 -3.5101 2.1166 -4.9539 -2.7710 0.9205 0.1778 -3.4965 -0.6374 1.3491 -2.0737 0.0410 -4.3499 -3.9852 1.2734 -2.6788 -2.7246 -0.1833 2.0358 1.8669 -2.1329 -5.1495 -4.6971 2.8916 6.5909 6.7441 2.0864 7.4325 6.0715 2.9960 5.2000 6.3405 1.3167 6.9548 4.9363 1.6423 2.9555 3.8066 2.3670 3.3565 4.8681 0.6274 5.1561 3.4297 -1.7677 0.2350 1.3408 0.8951 -4.0698 -2.7704 1.0645 -0.3717 -2.0841 -0.8097 1.2878 0.7901 0.2168 0.4921 -1.2763 -1.1907 -5.1348 -3.6246 0.4889 -1.7756 -2.0345 -0.0140 3.4021 1.8846 0.3436 0.5698 0.0987 0.7490 3.8576 3.0836 2.2841 4.7440 5.2936 1.3979 5.6666 4.5550 -3.3655 -6.3149 -4.8887
-0.6260 3.5829 -1.1224 -0.7241 1.3440 -2.0842 -3.0393 -5.0462 -7.0520 -2.0564 -5.5865 0.1312 -1.4097 -3.2021 -4.4634 -0.6218 -1.7499 -1.6879 3.0366 2.3328 1.5793 0.0813 -0.1566 1.2899 -4.2627 -3.7404 -5.1514 -4.6123 -6.2349 -5.3483 2.9430 -1.1688 -2.2301 -1.1691 -5.8701 -0.9393 2.6729 -2.3488 -1.3116 2.4571 0.0394 -1.4512 -0.4345 -4.9111 -3.0927 0.1206 -3.8290 -0.9964 0.7577 2.4725 1.2107 -2.3382 -5.3613 -4.5261 0.0945 6.7274 6.7095 -0.9068 6.6285 5.8167 1.3283 5.9896 6.5050 -0.7570 5.7950 4.6370 2.7880 3.6695 4.0990 2.6939 4.4419 5.1978 0.5690 4.2794 3.2546 -0.5853 2.1079 -0.7870 -0.8925 -4.5882 -1.6876 1.4723 -1.9374 -0.4700 0.7004 1.7579 -0.0503 1.4724 -0.4877 -0.5263 -1.4265 -4.3631 -4.0733 0.2114 -2.4581 -1.1313 1.9238 2.7510 1.8867 0.7162 0.2872 0.3337 1.7177 3.5860 3.1071 1.4777 5.2069 5.4203 0.3829 5.1096 4.4334 -3.7554 -5.0691 -5.4293
-2.7134 0.2645 3.7657 -2.2658 -2.1076 4.1240 1.3963 -0.0236 -5.3300 -3.2722 -0.2743 -2.6382 1.2049 -2.8482 -3.4675 0.3081 -1.9576 -0.4589 -1.0620 1.3285 0.6580 1.3436 -1.7205 3.4355 0.2893 -1.0166 -7.4715 2.1286 -2.3226 -6.3316 0.1075 -5.1938 1.2221 -3.0697 -1.6412 -2.9609 -1.2673 -4.6137 0.9359 0.7533 -4.2137 2.1849 -1.1622 -3.1911 -3.2629 -1.8606 -2.4993 -1.0542 -0.0068 0.4857 2.5412 -0.1929 -2.1398 -5.2178 2.2906 7.4197 1.7689 1.1676 7.4360 1.0288 2.7416 6.1842 2.3827 0.3943 6.2202 0.8428 1.7413 2.6884 2.5973 2.4731 3.7979 2.8082 0.0412 3.8332 1.2509 -1.6113 -0.7630 3.8961 -1.7262 -2.0677 -2.4218 -1.1183 -3.1112 1.1283 -0.7354 -0.7624 2.6538 0.0320 -2.9717 2.0042 0.0849 -2.7163 -3.9452 -0.7785 -2.4664 -0.1984 -0.2823 1.4526 1.5975 0.3306 -1.8441 2.7482 0.5006 2.7023 1.8266 2.0364 5.0505 2.2162 0.7973 5.0682 1.4102 0.9622 -1.4654 -6.2691
-0.7065 0.7409 5.6164 -1.8474 -1.4244 5.4674 2.1551 -2.6529 -6.4093 2.0811 -1.3717 -1.3595 -1.7613 -2.9676 -4.7258 0.6956 -3.8705 -0.3356 -1.4503 1.0706 0.8632 0.6656 -1.9494 2.7267 0.5319 -1.1724 -7.8065 -0.2313 -3.4628 -7.0583 -3.5047 -2.9477 0.9566 0.8867 -0.7546 -1.8132 -2.4843 -4.0628 0.7960 -2.8665 -1.9648 1.9213 -1.0984 -1.2714 -3.1736 -0.8335 -2.2552 -0.9811 -0.2437 0.7206 2.8068 0.0247 -1.5533 -5.3133 3.1144 6.7723 1.7979 3.1470 6.1883 3.0091 2.3362 6.1809 0.7246 2.3926 4.9723 3.2580 0.2013 3.2861 0.1412 0.8689 4.4248 -0.1225 0.8865 3.2061 2.4932 -0.7789 -0.5562 4.8444 -0.1202 -1.8288 -2.1634 -1.1438 -3.4315 1.1244 -1.0349 -0.3648 3.3545 -1.4393 -2.1812 1.7903 -1.0020 -2.0454 -4.4539 -0.3265 -3.2173 -0.1321 -0.5996 1.4231 1.6762 -0.5043 -1.5813 2.6180 0.2052 2.6618 1.4627 1.6401 5.0494 0.9385 1.6619 4.4170 2.2738 0.4827 -2.2264 -6.8131
-0.8223 0.0291 5.2833 -0.6565 -2.3739 4.8543 1.1311 2.0326 -3.4195 0.3251 -5.2400 -4.3037 1.8887 -1.0811 -4.6664 -1.3325 -2.4040 -1.1616 -2.4900 1.2560 1.6517 0.9562 -1.7160 1.6197 -1.3534 1.4401 -2.8887 -0.3850 0.7573 -5.1207 -2.9982 -4.1520 1.3150 1.3614 -4.6828 -3.5106 -1.7977 -4.8746 0.7262 -2.4312 -2.9702 2.0794 1.8305 -2.4005 -2.6745 0.4223 -3.9073 -1.4218 -0.4348 0.4975 2.3964 0.3848 -0.4582 -2.9728 2.5469 6.5489 0.5979 3.2060 5.6891 1.3952 1.1994 6.2444 0.1502 2.5696 4.4557 1.8239 -1.2844 3.5942 0.4889 -0.7381 4.7581 0.0878 0.6529 2.9379 1.8334 -0.2955 -1.0067 4.3168 0.8000 -3.5037 -2.7524 -0.6803 -3.8464 0.6704 -0.8537 -0.7894 2.9179 -1.0976 -2.7747 1.5488 1.3972 -1.2747 -3.5611 -0.5997 -3.2884 -0.7304 -1.2840 1.4150 1.8193 -0.2215 -1.7921 1.9709 -0.5877 2.6639 1.3748 0.6018 5.1014 0.5341 1.3199 4.1622 1.4189 -0.2498 0.9532 -3.6915
-0.6859 0.0709 5.5107 -0.3702 -2.3180 5.0854 2.3785 1.2180 -4.2873 -1.7671 -5.1028 -4.0157 1.1036 -1.7470 -5.3412 -0.7974 -1.8700 -0.9146 -1.9335 0.7968 1.0413 1.2028 -1.7876 1.9859 0.4212 1.7525 -2.6566 -0.1242 0.9281 -4.9806 -2.8850 -3.9030 1.3398 -0.3710 -4.9255 -3.8395 -1.6885 -4.6700 0.8028 -2.2904 -2.7640 2.1450 1.2281 -3.1125 -3.3833 -0.1565 -3.9832 -1.6188 -0.2362 0.5467 2.6008 0.8882 -0.7040 -3.2521 2.0171 6.9998 1.0878 2.2471 6.5027 2.3162 1.2211 6.2489 0.1346 1.6962 5.2150 2.7012 -0.6057 3.1034 -0.0520 -0.1142 4.2926 -0.4470 0.3752 3.2215 2.1873 -0.0883 -0.9308 4.5506 -0.1307 -3.6732 -3.0286 -0.5596 -3.6532 0.7127 -0.6350 -0.7388 3.1427 -0.9344 -2.6165 1.6545 1.0571 -1.8218 -4.1197 -0.5397 -3.0470 -0.6778 -0.9389 1.2200 1.6242 -0.0064 -1.7543 2.2088 -0.3358 2.5375 1.2660 0.7030 5.0561 0.4792 0.9507 4.5105 1.8299 0.7047 0.9022 -3.7928
0.6004 3.6004 -1.3746 0.2594 1.3669 -2.2972 -2.3450 -4.2073 -7.4721 -3.1495 -4.9645 -0.0769 -1.8784 -3.0527 -4.2032 -0.3653 -1.7257 -1.8611 2.9545 1.7805 2.2840 -0.3101 -0.0256 1.1282 -4.2893 -4.1261 -5.7317 -3.6347 -6.3495 -6.7400 3.4407 -1.8489 -0.9102 -2.1048 -5.4953 -0.8770 2.4318 -2.9028 -0.4943 2.7827 -0.5005 -0.7071 -0.9116 -4.8631 -2.9455 -0.3870 -3.7993 -0.8300 0.9575 2.3827 1.2803 -2.0447 -5.2331 -5.0544 -0.0733 7.1746 6.2605 -0.6540 7.3394 5.0584 0.8274 6.0585 6.4876 -0.3728 6.4141 3.9753 2.1752 3.1900 4.6799 1.9613 4.0408 5.7018 0.7760 4.4432 3.1025 0.1964 2.1844 -1.0266 -1.4534 -4.3582 -1.6265 1.1744 -2.1792 -0.0394 1.1011 1.6177 0.0573 1.4836 -0.7678 -0.1314 -1.6706 -4.2534 -4.0885 0.0673 -2.5084 -1.0207 1.9268 2.4512 2.2557 0.6747 0.2068 0.4277 1.5820 3.3921 3.3599 1.0879 5.1852 5.4962 0.4629 5.3778 4.1715 -3.2794 -5.0449 -6.2181
-0.6678 -0.0276 5.1683 -0.4629 -2.4194 4.7030 2.0313 1.7711 -2.6409 -1.0106 -5.0852 -4.3289 1.6592 -1.2651 -4.8565 -1.6357 -2.4983 -1.1656 -2.0418 0.9059 0.7948 0.9505 -1.7183 1.3455 -0.5529 1.6313 -2.3341 0.4204 1.2915 -4.6376 -2.9508 -4.2549 1.4642 0.3152 -4.7544 -3.9453 -1.7722 -4.9684 0.8230 -2.3665 -3.0155 2.1188 1.5652 -2.8161 -3.0427 0.0271 -4.0403 -1.6538 -0.3242 0.5014 2.2890 0.7428 -0.5316 -2.8215 2.2411 6.9104 1.1363 2.7875 6.1290 2.0850 1.1087 6.4330 0.3635 2.2496 4.8047 2.3444 -1.0400 3.4976 0.1522 -0.5508 4.7167 -0.1425 0.6277 3.0337 1.8815 -0.1550 -1.0385 4.1683 0.2628 -3.5803 -2.9982 -0.7210 -3.8958 0.5901 -0.7527 -0.7953 2.7883 -1.0810 -2.8125 1.4798 1.3369 -1.4889 -3.6963 -0.8561 -3.3827 -0.8239 -1.0338 1.2707 1.3939 -0.1893 -1.8057 1.8031 -0.4393 2.6260 1.1610 0.5981 5.2099 0.5966 1.1975 4.3510 1.6383 0.4831 1.1110 -3.2012
-1.4935 -0.0863 5.6274 -1.4286 -2.4405 4.9925 1.7123 -0.7179 -6.2296 -1.8270 0.2076 -1.4685 0.8087 -3.5195 -4.5667 1.2994 -3.1490 -1.0819 -1.7311 1.5811 1.7392 1.3155 -1.6120 2.5596 -0.4921 -0.4125 -7.5830 0.6302 -2.6757 -7.5773 -2.1763 -4.3147 1.3770 -2.0555 -0.8353 -2.4023 -0.7886 -4.7817 0.9706 -1.9824 -2.9667 2.0495 -1.1868 -2.9210 -3.3791 -0.9184 -2.4873 -1.0287 -0.1509 0.6005 3.1155 -0.5661 -1.8271 -5.4496 2.5966 7.1068 1.0678 1.5948 6.9648 0.1815 2.8039 6.1071 2.0995 0.7205 5.8056 0.2435 1.3138 2.9907 3.2592 2.1616 4.0352 3.2156 0.0441 3.6933 1.2835 -0.7740 -1.0963 4.7629 -0.9390 -1.8580 -2.3286 0.0650 -3.5296 0.9309 -0.7924 -0.6911 3.2924 -0.6314 -2.5477 1.7301 -0.1840 -2.8066 -4.4880 0.2288 -3.0307 -0.4896 -0.6566 1.6141 2.3310 0.0860 -1.6452 2.5005 0.2540 2.7979 2.2720 1.9947 5.0343 2.1744 0.9009 4.8694 1.1941 0.2438 -1.4563 -6.8974
1.3644 -1.0250 3.9775 0.6989 -2.3060 1.9997 -0.3573 -7.1489 -4.2627 1.5169 -2.5069 -2.3196 -2.3550 -4.6147 -5.2303 -1.4252 -2.5913 -0.9191 -1.6492 2.4196 2.8484 0.6210 0.5450 -0.0673 1.3188 -6.9768 -6.2506 -1.1602 -6.9518 -6.7400 -3.8344 -0.7187 0.4082 0.9685 -2.1075 -3.5666 -3.4837 -0.2174 -0.9841 -2.6430 -0.3437 1.2717 -0.9327 -2.6952 -5.0367 -1.2954 -1.4976 -2.9564 0.4252 1.4235 2.5972 -0.0583 -4.8946 -5.6279 3.5143 7.3483 4.6829 4.2193 6.2031 4.6614 2.1066 7.3455 4.3285 3.5741 4.9536 4.2975 -0.4578 4.9902 3.2501 0.0971 6.1650 3.6029 1.5909 3.6992 3.6093 1.0704 -0.9277 2.4975 -0.4897 -2.5034 -3.6042 -1.9631 -0.2326 -1.0443 -0.0208 0.0954 2.2136 -1.5431 -0.1635 0.3438 -1.2245 -4.1464 -5.2847 -1.5347 -1.5740 -1.5977 -0.4225 2.4681 2.8950 -0.2616 0.1985 0.7168 0.2901 3.7345 3.2487 1.4993 6.1961 3.9813 2.2686 4.9353 3.9712 -0.0322 -6.5773 -5.9110
-1.0231 -0.1802 5.8707 -1.0348 -2.5610 5.3162 -1.5784 -0.2261 -5.6835 0.0463 -4.8214 -3.9757 0.0673 0.2092 -2.3454 -1.3064 -2.0710 -0.6069 -1.9071 1.0725 1.5117 1.0672 -1.7447 2.3082 0.5754 0.7824 -6.7475 -0.3954 1.8759 -4.6872 -2.7631 -4.2677 1.5833 1.1105 -4.0331 -3.4668 -1.5048 -4.8424 0.9534 -2.2855 -3.1316 2.4697 1.4293 -1.7522 -2.5734 0.4314 -3.4789 -1.2118 -0.3532 0.4457 3.1098 0.7774 -0.4249 -4.4942 2.2977 6.4319 -0.2446 1.2973 6.0932 -1.0774 2.5269 5.6677 0.9686 0.4476 4.9541 -0.7768 1.1063 2.8138 2.7372 1.9299 3.8484 2.4837 -0.1802 3.0836 0.6681 -0.4999 -1.2104 4.8967 0.5362 -2.9727 -2.5581 -0.4864 -3.7143 0.9704 -0.8673 -0.8691 3.4567 -0.9663 -2.7887 1.9756 0.6632 -0.5677 -3.0812 -0.5318 -2.9892 -0.3539 -0.8498 1.2511 2.1082 -0.1401 -1.8305 2.5328 0.0488 2.4080 1.8136 1.7410 4.6159 1.2641 0.6507 4.2342 0.3420 -0.0767 0.6903 -5.4563
-1.4270 2.9733 -1.1567 -0.8993 0.9948 -2.4881 -4.6324 -2.8862 -3.7370 -1.3992 -6.2894 0.5759 -2.6587 -5.7358 -3.7820 -0.4295 -2.1809 -1.6464 2.5132 3.4407 0.2424 0.2231 -0.3617 1.0689 -3.1022 -3.3911 -5.7928 -2.7457 -1.2554 -4.4889 3.3404 -1.2124 -2.2445 -0.4968 -6.3227 -0.5182 2.8847 -2.4840 -1.5507 2.3616 -0.1239 -1.8560 -0.5470 -5.2599 -2.7487 0.5063 -4.1460 -0.8564 0.5711 2.2858 0.7337 -2.0871 -3.4927 -3.4219 0.0277 5.6194 6.8340 -1.0256 4.9385 6.3482 1.2575 5.7076 6.0672 -0.9449 4.2969 5.0478 2.6150 4.5347 2.8926 2.5723 5.1636 4.0824 0.2993 3.7460 3.0192 -0.9013 1.5559 -1.0845 -0.5867 -5.0069 -1.2542 1.7512 -2.1073 -0.6077 0.4905 1.4814 -0.4687 1.5777 -0.6736 -0.7734 -1.8671 -4.8982 -3.3682 0.4915 -2.7871 -1.1073 1.5839 3.1766 0.9999 0.7442 0.0718 0.0407 1.4684 3.8124 2.3470 1.3486 5.1105 4.8647 0.1878 4.3736 4.3254 -3.0655 -2.6683 -4.5381
-1.4973 0.4678 5.3853 -2.2987 -1.7592 4.7874 3.0974 -1.8951 -5.2525 -1.5952 0.9466 -2.0311 -0.3485 -1.7113 -5.8366 0.7437 -2.7773 -1.1357 -1.9611 1.6848 0.8660 0.5954 -1.2308 2.0567 1.7713 -3.7931 -6.4579 2.9992 -4.3229 -4.3140 -2.9341 -3.9843 1.4632 -2.1592 -0.1500 -2.7324 -1.8484 -4.2918 0.4489 -2.7658 -2.5197 1.8235 -1.4507 -2.2723 -3.7890 -1.4360 -2.0316 -1.3908 -0.7835 1.0028 2.7332 0.8764 -2.8789 -4.2085 3.5234 6.4566 2.0758 3.4989 5.7600 3.2262 2.6229 6.1082 0.9912 2.5628 4.6628 3.3970 0.0237 3.6617 0.2468 0.8596 4.7001 0.0575 0.7679 3.2429 2.5428 -1.2974 -0.6863 4.4282 -1.2174 -1.3270 -2.6309 -0.8017 -3.2093 0.6324 -1.4270 -0.2779 2.9639 -1.4228 -2.1627 1.4161 -0.2834 -2.2323 -4.7298 -0.4044 -2.6511 -0.7156 -1.0299 1.8186 1.6543 -0.6344 -1.2620 2.1182 -0.0296 2.9178 1.5031 1.7575 5.0875 1.1327 1.7212 4.3312 2.4007 2.2051 -3.4227 -5.1261
0.1013 -0.4880 5.6813 0.1115 -2.8231 4.9498 -0.9524 1.2043 -3.9912 -2.4670 -4.3672 -4.0954 1.3962 -0.9594 -2.4012 -1.2961 -1.8876 -0.8223 -1.3179 0.7725 1.2105 1.3927 -1.9781 1.7191 0.4034 1.1618 -6.2182 1.6435 1.4695 -4.0388 -2.7494 -4.0688 1.7395 -1.0558 -4.4873 -4.0093 -1.7085 -4.7410 0.8621 -2.0273 -2.9308 2.4321 0.8598 -2.9992 -3.5391 -0.4992 -3.8627 -1.7378 0.2484 0.3282 2.8576 0.6163 -0.8337 -4.6140 1.3525 7.2163 0.5408 0.1994 6.9178 -0.0840 2.0143 6.2261 1.3712 -0.3970 5.6039 0.0726 1.5317 2.7782 2.4497 2.1154 3.9863 2.3385 -0.3765 3.3590 1.0243 0.4815 -1.4125 4.5483 -0.5307 -3.4010 -3.1022 -0.6179 -3.7058 0.6340 -0.1931 -0.9945 3.2504 -0.8028 -2.7275 1.6855 0.9927 -1.5110 -3.4177 -0.8568 -3.0270 -0.6973 -0.3722 1.1157 1.9140 0.2372 -1.9328 2.1376 0.2641 2.4588 1.7967 1.4740 5.0034 1.5222 0.2031 4.6786 0.8429 0.5815 0.8587 -4.8123
1.2627 -1.0200 5.4018 -1.1392 -0.6822 5.9049 0.7518 -2.5714 -7.6791 -1.3300 0.7152 -1.9110 0.5155 -3.4892 -4.2599 0.7927 -3.2533 -0.9468 -1.2609 0.9090 1.4118 1.2551 -2.1579 2.4202 2.0871 -1.4247 -5.7532 0.5062 -0.0339 -7.1475 -3.0540 -3.5131 1.4149 -2.0672 -0.4095 -2.3618 -1.9754 -4.3866 0.7945 -2.3096 -2.6162 2.3844 -1.5351 -2.5548 -3.4464 -1.3065 -2.2733 -1.0439 0.1379 0.3950 3.1811 -0.4702 -1.7457 -5.4860 2.0996 7.0688 0.8329 1.0418 6.8323 0.0367 2.5190 6.0742 1.8029 0.3027 5.5863 0.1488 1.5708 2.7435 2.9157 2.2651 3.8931 2.8551 -0.0356 3.3923 1.1796 -0.1515 -1.3047 4.9504 -1.1598 -1.6159 -2.3199 -0.6931 -3.5755 0.8985 -0.4503 -0.8721 3.5298 -0.9678 -2.5139 1.8446 -0.3794 -2.6637 -4.3965 -0.3033 -3.0069 -0.4482 -0.3462 1.2019 2.1751 0.0587 -1.9095 2.5559 0.4004 2.4878 2.0811 1.8494 4.9125 1.9097 0.6786 4.6548 1.0445 0.8400 -1.2731 -6.4749
0.2381 -0.1788 5.6686 0.2121 -2.5237 4.9789 2.6079 -0.0560 -6.3362 -2.9686 -4.2814 -3.5008 -0.5403 -1.5249 -5.1581 -1.4033 -1.8464 -0.6741 -2.3280 1.3204 2.6102 1.0634 -1.3607 1.4814 2.7559 1.2888 -4.1087 0.5370 1.1525 -5.3078 -2.1575 -4.4883 2.4068 -1.5773 -4.4809 -3.6942 -1.5751 -4.7215 1.0258 -1.9278 -3.0206 2.7023 0.4773 -3.1085 -3.6678 -0.5607 -3.7930 -1.5978 -0.1406 0.6280 2.9131 1.4783 -0.9422 -4.1097 2.2025 6.6759 0.3267 3.0215 5.6097 0.3691 0.8170 6.5492 0.7421 2.5235 4.3221 0.8215 -1.4460 4.0081 2.0549 -1.0307 5.2106 1.6131 0.7103 2.9151 1.6655 0.4755 -1.1128 4.5038 -0.8242 -3.3981 -2.9582 -0.5737 -3.5983 0.7878 -0.3927 -0.7458 3.3081 -0.8497 -2.6171 1.8241 0.3729 -1.7983 -4.3891 -0.9090 -2.9638 -0.5488 -1.1191 1.5265 2.5522 0.0311 -1.5862 2.1133 -0.5700 2.8389 2.0883 0.3454 5.3641 1.1710 1.2411 4.1903 1.2086 1.7834 0.5467 -4.8855
1.0346 -0.4766 5.9077 0.6849 -2.8016 5.2302 -0.5796 0.7757 -6.3158 -3.2745 -2.3486 -2.6736 1.2098 -0.7222 -3.4547 -1.9063 -1.8150 -0.0678 -1.6518 1.0593 2.4214 1.3368 -1.7151 1.7047 0.9800 -0.5738 -7.9089 1.9909 0.5899 -5.9086 -2.2077 -4.4379 2.7427 -2.2131 -3.1601 -3.1532 -1.8112 -4.6150 1.2884 -1.7079 -3.0657 3.1450 0.2086 -2.8976 -3.5840 -0.6031 -3.2552 -1.3350 0.4204 0.3884 3.2131 0.5081 -1.5092 -5.5559 1.4157 6.9004 -0.0015 0.2470 6.5167 -0.5457 2.0545 6.0812 1.0125 -0.3752 5.2700 -0.1374 1.4632 2.9666 2.8078 2.0859 4.1013 2.4384 -0.3857 3.2383 1.2174 1.0412 -1.4206 4.7277 -0.9079 -2.6324 -2.6008 -0.7012 -3.6090 1.0191 0.0920 -0.9607 3.6294 -0.6948 -2.7246 2.1688 0.6926 -1.5933 -4.1433 -1.1468 -2.7755 -0.1597 -0.4565 1.2610 2.6094 0.3279 -1.8213 2.4014 0.2220 2.5172 2.1814 1.4836 4.9288 1.4072 0.2105 4.4957 0.7942 0.9130 -0.1595 -6.5217
-0.2279 -0.5753 5.8447 -0.5616 -2.8497 5.0043 2.9040 -2.0889 -5.2070 -1.4012 1.4234 -2.8283 -0.0247 -0.2692 -4.9246 0.0288 -3.3418 -1.3286 -1.4832 1.2135 1.6071 0.8815 -2.1326 1.8924 1.0001 -2.2482 -6.9863 1.7157 -4.3394 -5.7625 -3.6095 -3.1395 1.2720 -1.9383 0.4611 -1.9342 -2.6570 -4.1097 0.5904 -2.7395 -2.3037 2.1954 -1.5218 -1.4472 -3.4686 -1.6616 -1.7800 -1.0817 0.1236 0.2990 3.0032 0.4039 -2.5345 -4.4827 2.6441 6.8447 0.7736 1.6467 6.6396 -0.1053 2.8908 5.8842 1.8345 0.8180 5.4503 -0.0043 1.5202 2.7469 3.0894 2.3284 3.8210 3.0133 0.2249 3.3473 1.0962 0.0165 -1.4917 4.6682 -1.2174 -0.8595 -2.1052 -1.2945 -3.4466 0.6549 -0.5716 -0.9215 3.3818 -1.4021 -2.3995 1.6438 -0.3202 -1.3132 -4.3559 -0.9012 -2.8599 -0.6845 -0.4140 1.2880 2.2056 -0.2707 -1.8748 2.2419 0.4676 2.4893 2.1096 2.1232 4.7841 1.9447 1.0361 4.5505 0.9724 1.4440 -2.9164 -5.7798
0.7660 -0.8788 5.4452 0.4847 -3.1877 4.6675 2.4593 1.7186 -2.4303 -1.8514 -4.1867 -4.6878 1.5703 -1.0379 -4.8367 -1.3294 -1.5916 -0.9494 -1.7624 0.7763 1.9194 1.0657 -2.4552 1.4033 -0.1051 2.0698 -2.1296 0.8116 1.6967 -4.4527 -3.3838 -3.6666 1.7564 -0.5140 -4.2145 -4.2138 -2.8368 -4.0091 0.3841 -2.4377 -2.6346 2.3364 1.0919 -2.6591 -3.1507 -0.7029 -3.6319 -1.8719 0.2932 0.0080 2.6594 0.7615 -0.2710 -2.7659 1.3034 6.7741 -0.0398 -0.0356 6.6699 -0.1134 2.0973 5.6689 0.4665 -0.6991 5.4545 0.3229 1.6100 2.2900 1.7406 2.2630 3.4050 1.3636 -0.6135 3.1950 1.2415 0.8209 -1.7786 4.2331 -0.3451 -3.1294 -3.1753 -1.3714 -3.6019 0.3999 -0.1231 -1.2917 3.1460 -1.2358 -2.7079 1.5327 1.1670 -1.2689 -3.7033 -1.1417 -2.8005 -0.8598 -0.5581 0.9339 2.0968 -0.0118 -2.2090 1.9439 0.1538 2.1798 1.6879 1.4955 4.5343 0.8672 0.0237 4.4241 0.7979 0.8198 1.4138 -3.0317
1.8967 -1.6477 4.3428 0.0350 -0.8216 5.7378 0.2609 2.7788 -3.4834 -0.0614 -4.6419 -4.1478 -0.8773 -0.2205 -2.5036 -2.1721 -2.6080 -0.7918 -1.9285 0.8661 1.8859 0.9285 -2.1292 1.5118 -0.5595 1.0890 -5.2952 1.8168 1.9448 -5.3985 -3.2384 -4.1231 2.0251 0.8864 -3.8963 -3.4004 -2.3073 -4.9032 1.1110 -2.3550 -3.1113 2.7330 0.9786 -1.7276 -2.2262 -0.1291 -3.6269 -1.2343 0.0451 0.1318 2.8553 1.1643 0.2978 -3.5363 1.6918 6.3398 -0.6633 0.4967 6.0515 -1.2086 2.2337 5.5042 0.3924 -0.2528 4.8922 -0.7585 1.3199 2.5398 2.2967 2.0539 3.5930 1.8952 -0.4744 2.9192 0.6663 0.3949 -1.6411 4.5227 0.1404 -2.9585 -2.4819 -1.1094 -4.0004 0.8769 -0.3752 -1.1782 3.2968 -1.2007 -2.9551 1.8725 0.2842 -0.5109 -2.7605 -1.2353 -3.3290 -0.4663 -0.7348 1.0047 2.1308 -0.1259 -2.1306 2.1474 0.0508 2.1827 1.6665 1.5474 4.4299 0.8221 0.2448 4.0982 0.2071 0.6663 1.4977 -4.6395
0.0794 0.0623 5.7600 -0.3837 -2.3206 5.4098 1.3237 -2.2652 -7.3879 -0.7182 0.9254 -1.5630 0.5183 -3.5078 -4.1632 0.5053 -3.5010 -0.8408 -2.2188 1.1381 2.0047 0.9609 -1.9674 2.1199 2.7495 -1.8108 -5.2491 1.7468 0.1457 -6.4949 -3.2494 -3.7360 1.9693 -1.5558 -0.0125 -2.2177 -2.4613 -4.1375 0.7360 -2.5929 -2.4648 2.4791 -1.3050 -2.1503 -3.4050 -1.3191 -2.0785 -0.9949 -0.1879 0.5110 2.9157 0.1914 -1.4093 -5.1665 2.7864 6.3687 0.5816 3.4651 5.5550 1.4102 1.4235 6.0495 0.1956 2.8350 4.3544 1.9294 -1.0746 3.4628 0.7962 -0.5296 4.5878 0.2966 0.9141 2.8559 2.0888 0.1539 -1.0666 4.7580 -0.8921 -1.3699 -2.1769 -1.0916 -3.5174 0.9367 -0.6102 -0.7536 3.4803 -1.2999 -2.3934 1.8264 -0.0973 -2.4516 -4.2382 -0.5397 -3.0392 -0.3875 -1.0286 1.3507 2.2199 -0.2153 -1.7624 2.4200 -0.3487 2.5762 1.7023 0.8304 4.9381 0.6679 1.5717 4.0483 1.5821 1.6644 -1.2141 -6.0013
1.1947 -0.6929 5.1279 0.9137 -2.9308 4.1750 3.8133 -2.6727 -4.6548 -3.2186 -1.1657 -4.7623 0.4909 -1.1480 -5.4180 -2.4173 -1.1449 -0.6886 -2.0467 1.1110 2.4505 0.7877 -1.7744 0.9029 3.6306 -1.6323 -2.2710 2.9997 -0.2231 -4.2700 -3.5399 -3.2174 1.8260 -3.0765 -2.2023 -3.8031 -2.8829 -3.9764 0.6840 -2.4137 -2.4567 2.5020 -0.7410 -2.8480 -4.2679 -1.5832 -2.8647 -2.0069 0.1573 0.4089 2.5618 1.4712 -2.1773 -3.5442 2.3113 6.8900 1.0613 3.1637 6.0281 1.6438 0.9345 6.5024 0.8130 2.7083 4.7084 2.0439 -1.2376 3.6103 1.2726 -0.8633 4.8532 0.9138 0.9427 3.0243 2.2169 1.0754 -1.4660 3.8360 -1.6611 -2.1764 -3.2729 -1.6260 -3.1922 0.3420 -0.0836 -0.9551 2.9932 -1.3569 -2.3859 1.5130 0.4385 -1.9564 -4.4998 -1.9270 -2.2628 -0.8135 -0.8432 1.3335 2.3509 -0.1496 -1.7415 1.7000 -0.3299 2.6741 1.9311 0.5026 5.2796 1.1700 1.4329 4.3373 1.8243 3.0290 -1.4974 -3.5827
-2.4858 0.1648 5.0141 -3.3290 -2.0335 4.3346 4.3446 -0.1762 -2.6400 -2.6880 -3.2626 -4.3687 1.6757 -1.0171 -4.7838 -0.8760 -1.2013 -1.1410 -3.1589 2.2015 1.4729 -3.5149 -1.7590 0.8598 2.7556 0.4230 -0.6641 2.2158 1.2992 -2.9714 0.9640 -2.7745 1.5786 -1.3655 -3.7756 -4.3251 0.2329 -3.7936 0.7225 -0.1420 -1.9725 2.2356 0.9172 -3.0313 -3.7299 -0.7745 -3.3414 -2.0235 -1.6427 0.6143 2.2034 1.9311 -1.2226 -2.4562 3.6841 4.8191 0.6624 3.8835 3.7364 1.4351 2.3497 5.1480 0.1932 2.7641 2.8936 1.8138 -1.0465 3.8343 0.4109 -0.0408 4.6582 0.0588 0.3864 2.3578 1.7410 -2.3517 -0.9339 3.9858 -0.5515 -2.9206 -3.3848 -1.0765 -3.1211 0.3312 -2.5890 -0.4076 2.5824 -1.2896 -2.1184 1.3579 1.5257 -1.6600 -3.7521 -0.8914 -2.4209 -1.0004 -2.0052 1.8214 1.6506 -2.5123 -1.4966 1.5287 -0.8368 2.6644 1.2606 1.3048 4.3687 0.5271 1.5237 3.1851 1.3822 2.7097 0.2507 -2.1021
0.6734 -0.5346 5.8126 0.5720 -2.9162 5.2409 1.5264 2.4879 -4.2102 -0.8604 -4.5563 -3.9723 0.3840 0.2978 -1.8324 -1.6270 -1.6561 -0.4512 -1.7704 0.6651 2.0459 1.2312 -2.4659 1.9456 -0.9149 1.5639 -4.2626 0.5968 1.1460 -6.2451 -3.3010 -3.5200 1.9557 0.3095 -3.8328 -3.6271 -2.5121 -4.3046 0.9207 -2.2617 -2.8385 2.8254 1.1803 -1.8860 -2.4139 -0.3625 -3.3920 -1.3490 0.2941 0.0541 2.9129 1.0530 -0.1010 -4.0465 1.3597 6.1526 -1.0126 0.1921 5.7156 -1.5173 1.9859 5.4541 0.0956 -0.4436 4.5313 -0.9689 1.3612 2.5704 2.2343 1.9936 3.6521 1.7422 -0.4788 2.6745 0.6142 0.8397 -1.5321 4.6909 -0.0322 -2.7693 -2.6061 -1.1474 -3.6417 0.8499 -0.0797 -1.2038 3.5256 -1.0632 -2.7944 2.0150 0.8035 -0.4659 -2.6928 -1.0993 -2.7594 -0.3701 -0.5725 0.8690 2.2165 0.1252 -2.2215 2.4246 0.1211 2.0611 1.6543 1.4032 4.3603 0.6190 0.1300 3.8690 0.0521 0.3909 1.2674 -4.8160
0.0207 -0.7355 5.6283 -0.0659 -3.0797 4.9187 3.3079 1.3451 -3.4904 -2.4727 -3.4382 -4.6488 0.7502 -0.4690 -4.7459 -1.2268 -1.5129 -0.7127 -1.8532 0.6327 1.4791 1.0067 -2.4448 1.7421 2.1841 1.8962 -1.2166 0.8526 2.2205 -3.3426 -3.1725 -4.2350 1.6990 -1.0895 -3.6056 -4.3828 -2.5010 -4.4433 0.3539 -2.5000 -3.0299 2.3222 0.7646 -2.3859 -3.3080 -0.9552 -3.4308 -1.9731 -0.0006 0.0143 2.7298 1.3612 -0.1702 -2.4996 1.6216 6.4088 -0.4995 0.5710 6.0028 -1.2347 2.0493 5.6353 0.6524 -0.1448 4.7899 -0.8816 1.1252 2.5815 2.4173 1.8048 3.7086 2.1335 -0.4338 2.8234 0.5399 0.2866 -1.6758 4.4773 -0.7052 -2.7323 -3.2116 -1.1896 -3.6738 0.3958 -0.4791 -1.2633 3.2269 -1.2670 -2.8524 1.5870 0.9258 -0.9301 -3.6249 -1.1479 -2.7359 -0.7956 -0.7314 0.8606 1.9216 -0.1470 -2.2395 2.1172 0.0064 2.1165 1.6015 1.3956 4.5091 0.9909 0.2392 4.0642 0.1847 1.8096 1.4744 -2.5505

>  <OB_ATOM_TYPES> (1bmqB1)
C.3 C.3 C.3 O.3 O.2 O.2 O.2 O.2 O.2 O.2 C.3 C.3 C.3 C.3 C.3 N.am N.am N.am C.ar C.ar C.ar C.ar C.ar C.ar C.ar C.3 C.3 C.3 C.3 N.am C.2 C.2 C.2 C.2 C.ar C.ar C.ar S.O2

>  <ENSEMBLE_RMSD> (1bmqB1)
0.000 2.564 2.628 2.678 2.680 2.734 2.738 2.752 2.799 2.806 2.819 2.843 2.852 2.856 2.958 3.054 3.055 3.083 3.083 3.083 3.086 3.109 3.113 3.118 3.119 3.166 3.200 3.204 3.212 3.231 3.256 3.274 3.281 3.309 3.310 3.329 3.331 3.346 3.515 3.532 3.569 3.598 3.656 3.704 3.711 3.727 3.789 3.844 3.942

$$$$
