
 OpenBabel03071213D

 45 48  0  0  0  0  0  0  0  0999 V2000
   -0.3510   27.5760   31.0830 O   0  0  0  0  0
    3.8770   30.5800   28.6210 O   0  0  0  0  0
   -4.6840   29.2160   33.5480 O   0  0  0  0  0
   -4.3220   31.7630   33.9290 O   0  0  0  0  0
    4.0440   27.6430   20.8950 O   0  0  0  0  0
    2.1410   27.5020   22.8410 O   0  0  0  0  0
   -0.0970   34.2220   31.3770 O   0  0  0  0  0
   -0.8790   32.1990   26.5650 O   0  0  0  0  0
    4.4350   30.0480   19.4900 O   0  0  0  0  0
   -2.1480   33.1120   32.9000 O   0  0  0  0  0
    1.4370   35.1470   29.1790 O   0  0  0  0  0
   -0.6290   30.2180   24.5090 O   0  0  0  0  0
    1.1310   30.7840   17.9410 O   0  0  0  0  0
    2.2530   33.7760   21.7020 O   0  0  0  0  0
   -0.2400   28.8180   31.7180 C   0  0  0  0  0
    2.5550   30.4440   28.2040 C   0  0  0  0  0
   -2.3450   29.0440   32.9150 O   0  0  0  0  0
    1.7200   31.2050   30.3220 O   0  0  0  0  0
    1.0740   30.4720   20.7870 O   0  0  0  0  0
    1.4450   33.7360   24.4400 O   0  0  0  0  0
   -0.6740   31.6450   30.8770 O   0  0  0  0  0
    1.9140   32.8690   27.0650 O   0  0  0  0  0
    1.8330   30.4680   23.0300 O   0  0  0  0  0
    1.9210   31.5340   18.8880 C   0  0  0  0  0
    2.9600   33.0870   22.6950 C   0  0  0  0  0
   -3.5460   29.8080   32.9720 C   0  0  0  0  0
   -3.1670   31.0720   33.5970 C   0  0  0  0  0
    3.3010   28.7850   21.1550 C   0  0  0  0  0
    1.9650   28.3740   21.7090 C   0  0  0  0  0
    1.0010   33.5060   30.7990 C   0  0  0  0  0
   -0.2520   32.4840   25.3630 C   0  0  0  0  0
    3.1440   29.6420   19.9090 C   0  0  0  0  0
   -2.4440   31.8050   32.5150 C   0  0  0  0  0
    1.0290   33.7970   29.2840 C   0  0  0  0  0
    0.3420   31.2250   24.7390 C   0  0  0  0  0
   -1.5260   29.5860   31.8290 C   0  0  0  0  0
    1.5970   31.3810   28.8840 C   0  0  0  0  0
    0.8240   32.0130   31.1070 C   0  0  0  0  0
    1.1440   29.6280   21.9920 C   0  0  0  0  0
    0.9150   33.3680   25.7080 C   0  0  0  0  0
    2.3060   30.8640   20.2160 C   0  0  0  0  0
    2.1440   32.6170   23.8750 C   0  0  0  0  0
   -1.2030   31.0520   32.0660 C   0  0  0  0  0
    1.9830   32.8170   28.5090 C   0  0  0  0  0
    1.1200   31.5890   23.4610 C   0  0  0  0  0
  1 15  1  0  0  0
  2 16  1  0  0  0
  3 26  1  0  0  0
  4 27  1  0  0  0
  5 28  1  0  0  0
  6 29  1  0  0  0
  7 30  1  0  0  0
  8 31  1  0  0  0
  9 32  1  0  0  0
 10 33  1  0  0  0
 11 34  1  0  0  0
 12 35  1  0  0  0
 13 24  2  0  0  0
 14 25  2  0  0  0
 15 36  1  0  0  0
 16 37  1  0  0  0
 17 26  1  0  0  0
 17 36  1  0  0  0
 18 37  1  0  0  0
 18 38  1  0  0  0
 19 39  1  0  0  0
 19 41  1  0  0  0
 20 40  1  0  0  0
 20 42  1  0  0  0
 21 38  1  0  0  0
 21 43  1  0  0  0
 22 40  1  0  0  0
 22 44  1  0  0  0
 23 39  1  0  0  0
 23 45  1  0  0  0
 24 41  1  0  0  0
 25 42  1  0  0  0
 26 27  1  0  0  0
 27 33  1  0  0  0
 28 29  1  0  0  0
 28 32  1  0  0  0
 29 39  1  0  0  0
 30 34  1  0  0  0
 30 38  1  0  0  0
 31 35  1  0  0  0
 31 40  1  0  0  0
 32 41  1  0  0  0
 33 43  1  0  0  0
 34 44  1  0  0  0
 35 45  1  0  0  0
 36 43  1  0  0  0
 37 44  1  0  0  0
 42 45  1  0  0  0
M  END
>  <MOLID> (1bybA1)
1bybA1

>  <SMILES_CANONICAL> (1bybA1)
OC[C@H]1O[C@H](O[C@@H]2[C@@H](CO)O[C@H]([C@@H]([C@H]2O)O)O)[C@@H]([C@H]([C@@H]1O[C@H]1O[C@H](C=O)[C@H]([C@@H]([C@H]1O)O)O[C@H]1O[C@H](C=O)[C@H]([C@@H]([C@H]1O)O)O)O)O	

>  <FINGERPRINT> (1bybA1)
0000000000000101000000000100000000000001000000000000000000000000000000000000000000000000000000000000000010000001000000010000000010000000001111000000000001000000000000000010000000000000000000000000000000000000001010000000000000001000000000000000000001000000000000000010000000100000000000000000000100000000000000000010000000000000000000000000000000000000010000000000000011010000000000000001010000000000100000000010100000000010100000000000000000000000000000000000000000000000000000000010100000101010100100000000100000000000100000000000000000000000100000000000000000000000000000000001000101000000101000000000000000000000000000000000000000000001000000000001000000000000001000000000000000000000000000100000000000000101000000000000000000000000000010000000000000000000000101000000000000000000000001000000000000000000000000000000000000000000000000000000000000000000000000000010010000000000000000000010000000000000000000000000001000000000000000000000000000000000000000000000000010100000000000000000000000000000000000000000000000000000

>  <MACCS166> (1bybA1)
000000000000000000000000000000000000000000000000000011001000000000000001000000000100000010100000010000000000100000000001001001100011000111110010110001011110101000111000

>  <OB_MW> (1bybA1)
662.191

>  <OB_logP> (1bybA1)
-9.3356

>  <OB_PSA> (1bybA1)
341.51

>  <OB_MR> (1bybA1)
130.963

>  <OB_ATOMIC_CHARGES> (1bybA1)
-0.217609865 -0.2176098701 -0.1869438235 -0.2147589268 -0.2173786691 -0.214863004 -0.2148650269 -0.214864696 -0.217198585 -0.2175099144 -0.2175113796 -0.217498219 -0.2855367609 -0.2855384008 0.2140908325 0.2140896769 -0.3237350756 -0.3257349999 -0.3202632535 -0.3203814238 -0.325733628 -0.3257262101 -0.3253340276 0.2394304939 0.239312373 0.302348814 0.2433301877 0.2202104452 0.2405825167 0.2404419962 0.2404658029 0.2194042457 0.2167674803 0.2166639479 0.2170436715 0.1803999991 0.1803161942 0.2695321635 0.2698720161 0.2698584187 0.2146841861 0.2115169164 0.1804135428 0.1804110584 0.1854087797

>  <MCT_HBD> (1bybA1)
12

>  <MCT_HBA> (1bybA1)
21

>  <ENSEMBLE_TOTAL> (1bybA1)
47

>  <ENSEMBLE_COORDS> (1bybA1)
-0.9965 -3.5911 4.3006 3.2315 -0.5871 1.8386 -5.3295 -1.9511 6.7656 -4.9675 0.5959 7.1466 3.3985 -3.5241 -5.8874 1.4955 -3.6651 -3.9414 -0.7425 3.0549 4.5946 -1.5245 1.0319 -0.2174 3.7895 -1.1191 -7.2924 -2.7935 1.9449 6.1176 0.7915 3.9799 2.3966 -1.2745 -0.9491 -2.2734 0.4855 -0.3831 -8.8414 1.6075 2.6089 -5.0804 -0.8855 -2.3491 4.9356 1.9095 -0.7231 1.4216 -2.9905 -2.1231 6.1326 1.0745 0.0379 3.5396 0.4285 -0.6951 -5.9954 0.7995 2.5689 -2.3424 -1.3195 0.4779 4.0946 1.2685 1.7019 0.2826 1.1875 -0.6991 -3.7524 1.2755 0.3669 -7.8944 2.3145 1.9199 -4.0874 -4.1915 -1.3591 6.1896 -3.8125 -0.0951 6.8146 2.6555 -2.3821 -5.6274 1.3195 -2.7931 -5.0734 0.3555 2.3389 4.0166 -0.8975 1.3169 -1.4194 2.4985 -1.5251 -6.8734 -3.0895 0.6379 5.7326 0.3835 2.6299 2.5016 -0.3035 0.0579 -2.0434 -2.1715 -1.5811 5.0466 0.9515 0.2139 2.1016 0.1785 0.8459 4.3246 0.4985 -1.5391 -4.7904 0.2695 2.2009 -1.0744 1.6605 -0.3031 -6.5664 1.4985 1.4499 -2.9074 -1.8485 -0.1151 5.2836 1.3375 1.6499 1.7266 0.4745 0.4219 -3.3214
-2.0655 -2.3909 2.9495 0.9742 -1.8139 1.2125 -2.7511 -2.4446 8.4713 -3.0141 0.3413 8.6483 2.2144 -4.1954 -6.0978 -0.0827 -3.1467 -4.7844 -1.6216 3.4396 3.8767 -2.8512 1.2931 -1.7010 4.3867 -2.3341 -6.2426 -1.4131 1.8291 6.8119 -1.3363 3.5972 1.0818 -1.9368 -0.0406 -4.0240 4.2018 1.2677 -6.9663 3.6049 1.3872 -2.6655 -1.1795 -2.2051 4.0428 1.4131 -0.4664 1.2925 -1.8672 -2.2187 6.3187 0.7344 0.7324 3.2296 1.4644 -0.1334 -6.1554 0.6798 2.2090 -1.7329 -1.4629 0.6773 4.1461 -0.6233 1.0038 -0.1342 0.9021 -0.7194 -3.9065 3.4478 0.3245 -7.1615 2.4562 1.6346 -3.0015 -2.7029 -1.6302 7.3108 -2.1608 -0.2631 7.6902 2.1509 -2.8658 -5.6062 0.7204 -2.3767 -5.6627 -0.6200 2.7166 3.1811 -1.5749 1.5430 -2.2699 3.0305 -1.9734 -6.4565 -2.0785 0.6253 6.4674 -1.1082 2.3886 1.7867 -1.0688 0.2895 -2.9533 -1.9271 -1.4545 5.1197 0.3093 0.3469 1.9288 -0.2817 1.4428 3.9341 0.6349 -0.9075 -5.2912 -0.6096 1.9663 -1.1793 2.8398 -0.5136 -6.0841 1.2362 1.0539 -2.3616 -1.3311 -0.0718 5.3458 -0.0745 1.5403 1.0635 0.3417 0.5156 -3.4718
-2.3485 -2.5790 3.5042 0.6300 -2.1989 1.4016 -2.5195 -1.8959 9.0046 -2.6872 0.8998 8.8556 2.3638 -3.8686 -6.8114 -0.0690 -2.8686 -5.7110 -1.6020 3.3649 3.7244 -3.0439 0.6948 -1.8863 4.6521 -2.2899 -6.1341 -1.2306 2.0984 6.7178 -1.4733 3.3075 0.9133 -1.9255 -0.4277 -4.2376 4.8892 1.3687 -5.9405 2.4382 2.3725 -3.6701 -1.3519 -2.2500 4.4586 1.0934 -0.8640 1.2765 -1.8281 -1.9632 6.7673 0.6001 0.5131 3.1467 1.9419 0.1631 -6.0511 0.3992 1.9204 -1.7397 -1.5172 0.6337 4.2310 -0.8888 0.6347 -0.1847 0.9215 -0.8048 -4.1284 4.1251 0.6005 -6.5070 2.3434 1.4532 -2.8707 -2.5476 -1.2283 7.7527 -1.9376 0.1527 7.9111 2.3010 -2.6802 -6.0407 0.9487 -2.0287 -6.2261 -0.6776 2.5492 3.0255 -1.7770 1.0811 -2.3902 3.3947 -1.7329 -6.4875 -1.9465 0.8820 6.5844 -1.2606 2.1396 1.6895 -1.1332 -0.0800 -3.1143 -1.9746 -1.3442 5.4944 0.0706 0.0501 1.9092 -0.3317 1.3271 3.8556 0.9034 -0.6726 -5.5456 -0.8919 1.5655 -1.2578 3.2404 -0.3826 -5.8097 1.0621 0.8385 -2.3888 -1.3153 0.0269 5.5005 -0.2956 1.2005 0.9803 0.2562 0.3217 -3.5712
-1.0794 -2.5492 3.4013 2.3370 -1.6215 3.2749 -4.3114 -1.5756 7.7952 -5.0004 1.0195 6.9792 1.0612 -3.2675 -6.9211 -0.4395 -2.1920 -4.7833 -1.6521 3.4177 2.7289 2.1505 -2.0589 0.2185 3.3409 -1.7037 -7.6910 -2.9679 2.4562 5.5990 0.1294 3.1875 0.5015 2.1513 -2.4155 -2.6102 3.8456 1.5273 -8.0720 -1.3309 2.3725 -3.0092 -0.8498 -1.8475 4.6125 2.5469 -0.2534 2.9680 -2.5518 -1.5859 6.2497 0.8732 1.0937 3.9737 1.1218 0.7960 -6.1939 -0.4165 0.2861 -0.8847 -1.4827 0.8335 3.7375 1.5592 0.6849 0.3671 1.4443 -0.0805 -4.0348 2.7031 1.1802 -7.8098 -1.0488 1.1938 -2.8420 -3.8268 -1.0374 6.5737 -3.7215 0.4724 6.7032 1.4370 -2.0559 -6.2882 0.2090 -1.3725 -5.7349 -0.3873 2.7833 2.8054 1.1561 -1.5090 -0.6255 2.0985 -1.1400 -7.2988 -3.1912 1.0687 5.4156 -0.0442 2.1659 1.4685 1.7493 -1.2100 -1.9824 -2.1208 -1.1179 4.9763 1.1992 0.4011 2.7713 -0.3963 1.7372 3.9038 0.5675 -0.0140 -5.1529 0.5576 -0.2616 0.0004 2.3359 0.2392 -6.7059 0.1667 0.7088 -2.1229 -1.8959 0.3861 5.0211 1.2243 1.3442 1.5803 0.7495 -0.4865 -2.8630
-3.0454 -0.2224 1.9402 0.8306 -2.4226 3.6439 -4.8507 -1.2641 7.2651 -3.6843 1.1182 8.1724 4.4858 -1.6202 -6.9900 3.4058 -2.7492 -4.6127 -0.2891 3.8419 3.0376 0.4314 -2.6398 0.3399 3.2106 0.8105 -7.7846 -1.2890 1.8933 6.8352 1.0859 2.8948 0.7242 0.9591 -3.1173 -2.3844 0.0189 1.6901 -8.0232 0.0611 2.5815 -3.5621 -2.6834 -0.9585 3.0979 1.5481 -1.4272 2.9316 -3.6416 -1.0851 5.2667 0.7169 0.4783 4.0555 0.5467 -0.9106 -5.9568 -0.4353 0.5687 -1.1540 -1.4526 1.5089 3.9484 1.2727 0.0628 0.4199 1.6681 -0.7111 -3.8643 0.2515 0.5449 -7.6663 -0.2744 1.4488 -3.2495 -4.2056 -0.3754 6.3656 -3.1141 0.3769 7.1058 3.3927 -1.0424 -6.2959 2.6015 -2.1264 -5.5990 0.4721 2.6476 3.0234 0.0457 -1.7248 -0.6680 2.5030 -0.3123 -7.2787 -2.4031 1.3274 6.1644 0.4427 2.0272 1.6427 1.0058 -1.8115 -1.8338 -3.1083 -0.1705 4.3155 0.6738 -0.1999 2.8003 -0.0465 1.6808 4.0723 1.3454 -1.5523 -4.9658 0.0041 -0.3097 -0.1153 1.2303 0.1677 -6.6003 0.4568 0.5860 -2.2707 -1.9377 0.5911 4.9209 1.1676 0.6991 1.6802 0.6263 -0.7934 -2.8942
-2.7903 -2.3110 3.1483 0.6694 -2.2740 1.6286 -4.0553 -1.9358 8.5568 -3.8216 0.8588 8.6180 3.8752 0.2333 -8.0869 3.4257 1.0427 -5.3978 -1.4088 3.3856 3.9202 -1.8461 1.4026 -1.7861 1.6509 -1.1450 -9.2337 -1.8216 1.9578 6.9190 -0.6191 3.3729 1.2204 -0.7274 0.2439 -4.0902 -0.5185 -3.7189 -7.3119 4.5284 0.3593 -1.2532 -2.0103 -2.2041 4.3283 1.3318 -1.0722 1.9864 -2.9437 -1.9778 6.4977 0.5448 0.3074 3.7460 1.3495 -1.9423 -5.6880 1.7340 1.6905 -1.0797 -1.7403 0.6741 4.3165 -0.0478 0.6915 0.1590 1.9797 -0.7817 -3.7622 0.5947 -3.2234 -7.4109 3.6374 0.7917 -1.9687 -3.7442 -1.2003 7.3827 -3.0014 0.0645 7.7766 2.6959 -0.0823 -7.3682 3.0129 -0.2198 -5.8929 -0.4313 2.4870 3.4223 -0.4647 1.4983 -2.0853 2.1041 -1.3676 -7.9071 -2.6357 0.8600 6.5417 -0.7165 2.1716 1.9687 -0.0146 0.2828 -2.8652 -2.7212 -1.2723 5.2825 0.2855 -0.0622 2.3959 -0.4273 1.2189 4.2546 1.7612 -0.6815 -5.1634 0.3383 1.6571 -0.8091 0.9332 -1.8121 -7.0469 2.1805 0.5211 -1.7639 -1.8984 -0.0199 5.5476 0.2882 1.1449 1.4669 1.4844 0.3856 -3.1137
-0.3655 -1.9998 5.6173 1.7941 -2.2235 2.9874 -4.2686 -0.7588 8.4517 -4.5880 1.8491 7.4564 2.1856 -2.8571 -7.4264 0.2937 -2.5710 -5.3441 -1.7687 3.1126 2.4600 2.0176 -2.5339 -0.0685 3.9525 -0.6346 -7.7269 -2.5480 2.7329 5.6886 -0.0212 2.6720 0.2353 2.1363 -2.6504 -2.9022 3.5201 2.5519 -7.8099 -1.3654 2.1400 -3.0441 -1.5300 -2.0047 4.8054 2.1401 -0.8566 2.8389 -2.8566 -1.2644 6.6581 0.6624 0.7189 3.8078 1.0097 0.9057 -6.1873 -0.5789 -0.1723 -1.0694 -1.7184 0.7068 3.7992 1.3698 0.1720 0.2321 1.4176 -0.1932 -4.1447 2.4834 1.9533 -7.5692 -1.1330 0.9465 -2.9531 -3.9157 -0.4294 7.1155 -3.4961 1.0291 7.0707 2.1319 -1.6936 -6.6199 0.7232 -1.4718 -6.1219 -0.5321 2.4275 2.5540 1.0316 -1.9430 -0.8968 2.5736 -0.4914 -7.4252 -3.0651 1.4125 5.6715 -0.2420 1.7110 1.2553 1.6609 -1.5145 -2.2019 -2.5279 -0.9780 5.3034 0.8739 -0.0588 2.6313 -0.5334 1.4884 3.7461 0.6308 -0.1753 -5.3311 0.3816 -0.7630 -0.1924 2.3646 0.7907 -6.6354 0.0462 0.3692 -2.2378 -2.0124 0.4458 5.1666 0.9924 0.8479 1.4177 0.6737 -0.7446 -3.0620
-1.9440 -2.1077 2.9243 1.0925 -2.0378 2.6510 -4.3073 -2.5964 7.2410 -3.4953 -0.2025 8.4628 2.0933 0.5420 -8.5279 1.5495 1.5379 -5.9165 -1.2164 3.9166 3.6035 -0.8923 -0.6833 -0.0535 1.1732 -2.1239 -8.9336 -1.4937 1.2609 7.0851 0.4834 3.7082 1.3312 -0.2646 -1.5529 -2.6848 1.2994 -4.9103 -6.2991 3.6373 2.8968 -2.9631 -2.9261 -1.0870 2.9735 1.7048 -0.7725 2.8270 -3.4622 -1.8341 5.1976 0.5008 0.7382 4.1809 1.8732 -2.0555 -5.3525 0.9728 2.1677 -1.3943 -1.8434 1.2789 4.1811 1.2787 0.9394 0.6013 2.0998 -0.3309 -3.8074 1.8468 -3.8910 -6.6930 2.5065 2.4540 -3.0856 -3.9755 -1.4520 6.4690 -2.9494 -0.6252 7.2237 1.4832 -0.2329 -7.5087 1.9982 0.2142 -6.1560 -0.2051 2.9360 3.4712 -0.3682 0.1833 -1.0426 1.7992 -1.6934 -7.7349 -2.5453 0.5901 6.4113 -0.0133 2.5678 2.0162 0.5152 -0.5865 -2.0033 -3.2055 -0.6830 4.4041 0.6240 0.2842 2.8355 -0.5050 1.7315 4.3405 1.5014 -0.7094 -5.0491 0.3581 1.3517 -0.3972 1.2793 -2.5123 -6.5677 1.8998 1.4244 -2.1865 -2.0990 0.1598 5.0224 0.9829 1.4280 1.9017 1.1582 0.3691 -2.9985
-2.3522 -0.7458 1.3382 1.7706 -0.9717 2.9003 -3.0108 -3.5077 6.0404 -3.5822 -1.2416 7.5995 2.6851 -3.6985 -6.8724 2.4617 -3.0960 -4.1002 -1.9608 4.2697 3.6382 0.5037 3.2181 -1.3216 2.3744 -1.4090 -8.5665 -2.1565 1.1209 6.8856 -0.4826 4.1722 1.2068 0.3378 1.6793 -3.6729 -0.0245 1.3154 -8.2339 1.3329 -3.2104 -1.0196 -1.4882 -0.8952 2.4512 2.0214 0.4194 3.0261 -2.1663 -2.1206 4.3545 0.4865 1.6903 4.3176 0.3763 -0.5397 -5.6345 2.0361 0.0512 -0.2611 -1.9089 1.5035 4.0630 0.2999 1.3468 0.7010 0.5504 -1.1463 -3.3795 -0.0072 0.2076 -7.7142 1.9187 -2.1343 -1.0263 -3.0481 -2.2094 5.4687 -2.6576 -1.1909 6.5257 2.3663 -2.4060 -6.3915 1.6208 -2.5008 -5.0744 -0.7562 3.5337 3.4964 1.1875 1.9888 -1.4677 1.5586 -1.6474 -7.4275 -2.6651 0.2019 5.9342 -0.6208 3.0565 2.0665 0.4365 1.0636 -2.4028 -2.3033 -0.8494 3.7223 0.6897 1.1257 3.0321 -0.7893 2.3266 4.4125 1.2250 -1.1011 -4.6342 1.4621 1.3520 -0.1145 1.0939 -0.3165 -6.8513 1.2375 -0.8042 -1.0811 -1.8164 0.2317 4.6801 0.5566 2.1120 1.8824 1.2071 -0.2446 -2.4956
-1.1076 -2.8079 5.4932 0.7965 -2.6579 2.1292 -4.4007 -1.1415 8.8683 -3.9300 1.5863 8.4673 2.4381 1.3674 -8.6068 1.8718 1.9096 -5.8777 -1.5068 3.1567 3.5466 -1.6234 -0.8759 -1.2465 1.5402 -1.2123 -9.4507 -1.8318 2.2387 6.6705 -0.3319 2.9251 1.0090 -0.4339 -1.3402 -3.7552 1.8674 -4.4062 -7.2751 3.7945 2.5575 -2.1606 -2.2582 -2.3172 4.8249 1.4560 -1.4388 2.4375 -3.2061 -1.6337 6.9157 0.5414 0.1568 3.9289 2.2492 -1.7171 -5.9078 0.9265 1.7505 -1.3409 -1.7815 0.5081 4.3195 0.4426 0.0681 0.2801 2.2456 -0.2809 -4.0731 2.3475 -3.3113 -7.5226 2.7363 2.1954 -2.6530 -3.9782 -0.6555 7.6043 -3.1519 0.6032 7.8035 1.8438 0.4189 -7.7366 2.3334 0.6446 -6.3197 -0.4649 2.2427 3.2610 -0.7328 0.0473 -1.8428 2.1830 -0.9797 -8.2055 -2.7048 1.1413 6.4614 -0.5531 1.7811 1.8218 0.2678 -0.6738 -2.7187 -2.8829 -1.1817 5.6071 0.4030 -0.3712 2.6160 -0.4862 1.0896 4.2398 1.7955 -0.4570 -5.4154 -0.0440 0.8772 -0.7760 1.6993 -2.0040 -7.1936 1.8977 1.0714 -2.1319 -2.0042 0.0605 5.6521 0.5061 0.7151 1.5505 1.2318 0.3507 -3.2982
-2.7703 -2.0999 3.2876 0.2888 -2.3057 2.2796 -4.1564 -2.1601 7.9963 -2.5150 -0.1192 8.9737 3.1105 0.7816 -8.3049 2.4892 1.5705 -5.6392 -1.0379 3.8309 3.6827 -1.9934 -0.0384 -1.3477 1.5826 -1.4813 -9.1713 -0.6662 0.9919 7.1502 -0.1693 3.3584 1.0577 -0.7269 -0.8974 -3.7059 0.8885 -4.5625 -6.9418 4.1844 1.9136 -1.8697 -3.4318 -0.8618 3.5000 1.1203 -1.1750 2.4880 -3.6470 -1.5242 5.8033 0.4945 0.5422 3.9957 1.8967 -2.0260 -5.5764 1.1514 1.8416 -1.2001 -1.7536 1.2768 4.4376 0.0662 0.3997 0.3791 2.1409 -0.5680 -3.7757 1.6706 -3.6476 -7.1489 3.0832 1.8172 -2.3889 -3.7470 -1.0919 7.1547 -2.4060 -0.5662 7.6320 2.2102 0.0732 -7.4705 2.6375 0.2135 -6.0230 -0.1926 2.7464 3.3398 -0.8393 0.6050 -1.8581 2.1793 -1.3802 -7.8870 -1.9639 0.5848 6.7514 -0.4776 2.2782 1.9254 0.0166 -0.3869 -2.6125 -3.3224 -0.4363 4.9495 0.2239 0.0216 2.7031 -0.3759 1.6170 4.3316 1.7662 -0.6729 -5.1466 -0.0622 1.2637 -0.7350 1.3748 -2.2013 -6.8940 1.9864 0.9229 -1.9058 -1.9623 0.1582 5.2924 0.3934 1.0637 1.5994 1.2611 0.3302 -3.1077
-3.1619 -0.5357 2.2130 1.1878 -1.6351 1.8678 -2.5913 -3.3534 7.0618 -2.0018 -1.0000 8.4748 0.5431 -3.0620 -7.3721 -0.7453 -0.8013 -6.2292 -1.3567 3.9769 3.7799 -2.8557 0.6040 -1.1062 2.9052 -3.8601 -5.9745 -0.4948 0.9430 7.0268 -0.9284 3.8317 1.0095 -2.0064 -0.5130 -3.5701 5.4564 -1.9171 -4.4895 3.1700 2.3170 -2.8147 -2.1119 -1.1858 2.9120 1.6093 -0.2849 1.7558 -2.2225 -2.2190 5.0476 0.8454 1.0986 3.5268 2.7376 -0.2737 -5.2835 0.3038 2.3415 -1.6741 -1.4369 1.2565 4.3058 -0.4349 0.9725 0.1325 0.8280 -0.5217 -3.9109 4.6317 -1.5489 -5.3166 2.0040 2.1328 -3.1321 -2.5789 -2.0881 6.4191 -1.5941 -1.1787 7.1292 1.0565 -2.3837 -6.2382 0.6624 -0.9263 -6.3066 -0.3888 3.1150 3.2061 -1.7807 1.1412 -1.8608 2.5650 -2.5048 -6.2198 -1.5331 0.1713 6.4485 -0.8484 2.6772 1.8321 -1.0962 0.0337 -2.6316 -2.3135 -0.9595 4.3927 0.4885 0.5981 2.2508 -0.1846 1.9049 4.0961 1.3193 -0.1380 -5.1894 -0.7994 1.8329 -0.9340 3.1524 -1.6323 -5.1247 1.0240 1.3115 -2.3588 -1.2841 0.0055 4.9631 0.1363 1.6771 1.2351 0.1234 0.5801 -3.3492
-0.0545 -2.1988 4.8292 2.6490 -1.0668 3.0165 -4.4771 -2.2192 7.1856 -4.9895 0.5216 6.9538 -0.2376 -2.9498 -7.3692 -0.5446 -2.1641 -4.6460 -2.0333 3.4032 2.8013 3.6978 -0.2981 -0.2725 2.3228 -2.2666 -8.4441 -2.8913 2.0885 5.8571 -0.1629 3.5583 0.6559 3.1745 -0.7286 -2.9999 4.1246 1.1045 -7.7083 -2.5009 0.7566 -1.8269 -1.0995 -2.0625 3.8810 2.6309 0.3511 3.0458 -2.7298 -2.0198 5.6429 0.7139 1.3287 4.0288 1.7748 0.3337 -5.9445 0.0412 -0.1725 -0.3540 -1.5721 0.7820 3.6089 1.6473 1.4138 0.4244 0.6070 0.3420 -3.9261 3.0437 0.5447 -7.8181 -1.5395 0.0197 -1.9949 -3.9622 -1.4695 6.0961 -3.7529 -0.0324 6.5359 0.7444 -2.2205 -6.6532 0.0804 -1.3372 -5.6138 -0.7026 2.9256 2.9004 2.3941 -0.5598 -0.7610 1.5661 -1.3920 -7.6196 -3.2052 0.7876 5.3864 -0.2220 2.4548 1.5449 2.2525 -0.0370 -2.1739 -2.2743 -1.3273 4.4876 1.2145 0.8113 2.7998 -0.6256 1.7999 3.9163 1.1472 -0.4770 -4.9531 1.3521 0.0490 0.1573 2.5121 -0.4752 -6.8611 -0.1294 0.3860 -1.6556 -1.9644 0.1281 4.8086 1.1556 1.8449 1.6848 0.8245 -0.2609 -2.6533
-3.9161 0.3289 2.6232 0.6540 -2.0876 2.2252 -3.7312 -3.1595 6.7948 -3.1240 -0.9291 8.4091 3.1569 0.1979 -8.1769 2.6073 1.2661 -5.5896 -0.8180 3.9315 3.9860 -2.0205 0.8525 -1.2816 1.3740 -1.9022 -8.9228 -1.1321 0.8247 7.3441 -0.0332 3.6606 1.2930 -0.9492 -0.2759 -3.6375 0.1466 -4.6424 -6.4227 4.4252 1.3816 -1.6020 -3.9341 -0.0292 3.9979 1.4244 -0.9024 2.3458 -2.9017 -2.0185 4.9278 0.7868 0.6690 4.0004 1.4887 -2.1898 -5.2877 1.4520 1.9829 -1.1182 -1.4781 1.3129 4.5163 0.0948 0.7723 0.4334 1.9446 -0.6618 -3.5913 1.0428 -3.8766 -6.7402 3.3770 1.4625 -2.2294 -3.4605 -1.8826 6.2324 -2.5069 -1.1295 7.1475 2.1512 -0.3119 -7.3165 2.5644 -0.1236 -5.8706 0.0375 2.8940 3.5381 -0.7462 1.2118 -1.7892 1.9294 -1.7771 -7.6217 -2.1448 0.2176 6.5571 -0.2982 2.5272 2.1059 -0.1246 0.0465 -2.5297 -2.6443 -0.7621 4.3157 0.4794 0.2264 2.6862 -0.1049 1.6881 4.4463 1.5572 -0.8041 -4.9554 0.1443 1.6787 -0.6545 0.9798 -2.3863 -6.6061 2.0739 0.8829 -1.7769 -1.6504 0.0468 5.1350 0.5564 1.3464 1.6549 1.2703 0.4426 -2.9954
-2.8444 -1.3779 2.5949 1.0973 -2.1875 3.6017 -4.0716 -0.9431 8.2476 -3.6853 1.8266 8.1026 3.7274 -2.1044 -7.3056 1.9172 -3.0364 -5.3416 -1.4048 3.5274 2.2639 2.4317 -2.4907 0.2134 3.9755 0.7485 -7.4185 -1.8472 2.7339 6.1449 0.2556 2.6622 0.1058 2.7317 -2.6920 -2.5790 1.1937 3.2099 -7.1043 -2.1396 0.7829 -2.8763 -2.3661 -1.6124 3.9099 1.6912 -1.0819 2.9397 -3.1329 -1.1882 6.1153 0.4885 0.7739 3.7809 0.6126 0.2971 -6.0312 -0.5186 -0.7166 -0.9679 -1.8598 1.2243 3.6919 1.3516 0.0918 0.2561 1.5315 -0.5158 -4.0122 1.2807 2.0186 -7.3616 -1.3125 -0.1092 -2.9922 -3.8168 -0.3082 7.0039 -2.9862 0.9410 7.2443 3.0128 -1.2150 -6.4645 1.6971 -1.8384 -6.0583 -0.3282 2.6218 2.4216 1.3883 -2.1307 -0.6756 2.7430 0.0755 -7.2086 -2.7112 1.6321 5.9248 -0.1374 1.8030 1.1631 1.9815 -1.6514 -1.9808 -2.9666 -0.5797 4.8369 0.6110 -0.0704 2.6367 -0.5407 1.7482 3.6426 0.8820 -0.8575 -5.2323 0.5366 -1.0315 -0.0622 1.8081 0.9808 -6.4219 -0.0383 -0.1980 -2.2133 -2.0708 0.6424 4.9697 0.9421 0.7744 1.4201 0.8902 -1.1792 -2.9245
-1.7113 -2.4994 3.6573 1.7577 -2.2269 4.2756 -5.4422 -0.2154 7.2055 -5.2202 2.3155 6.0268 3.6870 0.1868 -7.7287 3.9328 -1.5234 -5.4582 -0.8134 3.2683 2.4857 2.4684 -2.9227 0.2413 1.4430 1.9642 -7.5502 -2.6606 2.9737 4.9683 1.1238 2.5242 0.5188 2.6096 -3.0067 -2.5943 -1.4631 -0.0367 -7.6883 -0.7082 1.8854 -2.7743 -1.6726 -1.8367 4.9109 2.2430 -1.3479 3.2736 -3.4762 -0.8825 6.1162 0.8865 0.4425 4.0659 0.3303 -0.9305 -5.6101 -0.0056 -0.4258 -0.7311 -1.4190 0.7621 3.5811 1.9653 -0.1986 0.5863 1.8893 -0.5103 -3.8578 -1.0323 0.5682 -6.7181 -0.5311 0.6821 -2.6524 -4.5956 -0.0024 6.0871 -4.1093 1.4354 6.0879 2.7558 0.1858 -6.6590 2.6868 -1.1961 -6.0476 0.2277 2.3410 2.7307 1.5249 -2.2713 -0.5907 1.3950 0.5937 -7.1812 -3.2206 1.6746 4.8849 0.5776 1.6097 1.4548 2.1831 -1.8534 -1.8891 -2.7295 -0.7578 4.9092 1.1574 -0.3575 2.9148 -0.1635 1.3789 3.8389 1.5772 -1.2815 -5.0132 0.9333 -1.0705 0.1290 0.3310 0.4032 -6.1142 0.6168 0.0718 -1.9162 -2.1166 0.6339 4.8156 1.5851 0.5183 1.7483 1.2023 -1.0650 -2.7399
-1.8518 -2.9702 4.2284 1.9836 -0.7531 1.2133 -3.2376 -1.9714 8.8962 -2.1376 0.5897 9.1001 0.7860 -0.4313 -8.4527 0.6284 1.3677 -6.2733 -1.4784 3.3835 3.7880 -2.7202 0.8121 -2.1293 1.9769 -2.9616 -7.8268 -0.6062 1.4936 6.8937 -1.3800 3.2439 0.9875 -1.3640 0.0337 -4.4795 4.4859 -3.9062 -5.8543 3.7256 1.3110 -1.6234 -2.8524 -1.9693 4.1790 0.6706 -1.2381 1.4501 -2.8791 -1.9436 6.5819 0.3401 0.2495 3.3067 3.4413 -0.7533 -5.3009 0.7329 1.8170 -1.3779 -1.7670 0.6949 4.3256 -0.9000 0.5767 -0.1213 1.3910 -0.4660 -4.1741 4.3440 -2.7159 -6.0928 2.7523 1.4260 -2.3557 -3.0948 -1.1491 7.7456 -1.9187 -0.2046 7.9444 1.2618 -0.7777 -7.1648 1.7057 0.4655 -6.4278 -0.6560 2.4465 3.1120 -1.3935 1.2241 -2.4159 2.4372 -1.7272 -7.2916 -1.7691 0.6986 6.7355 -1.2754 2.0744 1.7788 -0.7030 0.1640 -3.2336 -2.8328 -1.1187 5.4291 -0.1966 -0.1469 2.0483 -0.4883 1.2027 3.9720 2.3220 0.1054 -5.0854 -0.6396 1.5292 -1.1384 3.0533 -1.9749 -5.9240 1.4131 0.7958 -2.1073 -1.6668 -0.1399 5.4723 -0.3804 1.0426 1.1149 0.7379 0.5710 -3.4527
-0.1170 -3.1608 3.6716 3.5457 0.2032 3.0367 -3.9840 -1.7008 7.5299 -5.4977 -0.3295 5.5910 2.3336 -2.8447 -7.0654 3.2702 -1.6171 -4.6731 -2.4054 1.7264 1.0846 0.7663 3.6620 -1.3590 0.0109 -1.5973 -8.1506 -3.9614 1.0359 3.6258 -0.6587 4.0614 1.5320 1.1727 2.1034 -3.7096 -2.9114 -0.2363 -6.0157 3.7266 -2.0635 -0.3746 -0.3182 -2.1212 4.6150 2.5871 1.1529 3.4730 -2.1753 -1.7670 6.0433 0.3036 0.5466 3.2090 -0.3066 -0.9140 -4.5804 2.9530 1.0005 -0.2262 -1.7663 -0.5310 2.6303 2.0716 2.8537 0.9816 1.2538 -0.8050 -2.8659 -2.0196 -1.0683 -6.0639 3.6178 -1.0410 -1.0385 -3.5913 -1.6666 6.1647 -4.0799 -0.3682 5.5492 1.6733 -1.7532 -6.4472 1.8933 -1.8114 -4.9516 -1.3528 1.8142 2.0362 1.7269 2.6243 -1.4446 0.1944 -1.8167 -6.7611 -3.6253 -0.2526 4.1108 -0.2833 2.7000 1.4474 1.2105 1.5655 -2.3980 -1.7959 -1.8110 4.6700 1.4107 1.1131 2.5281 -0.7804 0.4338 2.2949 1.0745 -0.7268 -4.2732 1.9095 1.9537 -0.1049 -0.5573 -0.7561 -5.9755 2.4522 -0.1074 -0.9656 -2.1275 -0.4788 4.0059 1.1167 2.5101 1.9965 2.0408 0.2859 -2.3828
-2.4824 -2.4291 3.6864 1.7504 -1.8762 3.6628 -3.3845 -1.2046 9.0524 -3.5248 1.5520 8.5423 0.8741 -2.5906 -7.3129 -0.7556 -0.5472 -6.2129 -2.2582 2.9853 2.6082 2.6409 -0.8794 -0.6811 3.6526 -2.3796 -6.7031 -1.7406 2.5019 6.5160 -1.3697 1.9318 0.1573 2.7736 -1.1025 -3.5392 5.6935 0.5753 -6.1892 -2.7050 1.2609 -3.5866 -1.6358 -2.0854 4.7718 1.7922 -0.8521 2.6822 -2.3578 -1.5169 6.9672 0.5112 0.8743 3.6844 2.5352 1.0902 -6.4233 -0.7486 -0.2729 -1.7864 -1.8273 0.7403 4.1721 0.0270 -0.6426 0.3889 1.0455 1.1440 -4.5795 4.6708 0.3726 -6.8247 -1.7810 0.4646 -3.6684 -3.2204 -0.6894 7.7409 -2.6406 0.7118 7.8174 1.4204 -1.5625 -6.5055 0.5712 -0.3230 -6.6245 -1.0405 2.2675 2.4944 1.5052 -0.9268 -1.5294 2.8305 -1.2535 -6.9654 -2.4564 1.2806 6.4258 -1.1451 1.2477 1.3780 1.8636 -0.2670 -2.8467 -2.3580 -1.0653 5.6195 0.4618 -0.1367 2.6824 -0.7286 1.5704 3.8074 1.2149 0.8682 -5.9507 0.3589 -0.1650 -0.9016 3.3702 -0.0465 -6.2184 -0.5024 0.5702 -2.9029 -1.7125 0.3109 5.5231 0.1448 0.4398 1.3105 0.6675 0.0543 -3.7392
-4.3839 3.0542 3.6023 1.4052 -2.3864 3.6562 -5.3062 -1.1588 7.1412 -2.8042 -0.8389 8.3943 4.1883 -0.9981 -7.7982 3.8314 -2.3838 -5.3273 -1.4142 3.1455 2.1909 2.2579 -2.7600 0.3036 2.5021 1.2927 -8.0641 -0.6703 -0.1166 6.6431 0.8297 2.7113 0.4484 2.5999 -3.0933 -2.4930 -0.8142 1.8547 -7.0706 -0.7064 1.7403 -3.3491 -4.0757 1.6695 3.5860 1.9713 -1.1916 3.1408 -4.5788 0.1854 5.3682 0.4211 0.4646 3.8289 0.5380 -0.8937 -5.8942 -0.1086 -0.3343 -1.0597 -1.3669 1.7716 4.6336 1.7350 -0.0206 0.4153 2.0005 -0.7371 -4.0280 -0.2720 0.7711 -7.2305 -0.5037 0.5590 -3.1087 -4.4016 -0.1384 6.7444 -2.9823 -0.6154 7.0049 3.2318 -0.6100 -6.8257 2.7591 -1.8311 -6.0687 -0.3005 2.3380 2.5330 1.3862 -2.1777 -0.6484 2.0607 0.0614 -7.5122 -1.9788 0.4160 6.5325 0.2554 1.7109 1.2708 2.1424 -1.8779 -1.9240 -3.7138 1.2546 4.9918 0.8452 -0.2879 2.6977 -0.7266 1.2349 3.4840 1.5915 -1.5057 -5.1530 0.7483 -0.9214 -0.0824 0.9573 0.3280 -6.5042 0.6008 0.0484 -2.2404 -2.2742 0.7810 5.0922 1.2909 0.6496 1.5857 1.2334 -1.1643 -2.9071
-4.2330 -1.8724 4.4166 -0.0595 -2.4906 1.4783 -1.8751 -1.8002 9.3062 -0.8899 0.8188 9.0891 1.4856 -1.1801 -8.6010 0.2900 0.6694 -6.8081 -1.8767 3.2591 3.6081 -3.0920 0.3846 -2.3752 3.2724 -3.0266 -7.3587 0.0174 1.5715 6.5118 -1.9729 3.0744 0.8048 -1.5882 -0.2584 -4.6999 5.5589 -2.5875 -4.6995 3.3495 1.1604 -1.9178 -2.8479 -1.9934 4.7001 0.4475 -1.1992 1.1823 -2.2035 -1.8553 6.9866 0.1702 0.2783 3.0169 3.4263 -0.1436 -5.1095 0.1875 1.8392 -1.6030 -1.7727 0.6343 4.3670 -1.3155 0.4690 -0.3187 1.2053 -0.3929 -4.3336 5.0495 -1.7221 -5.3971 2.2926 1.5653 -2.3793 -2.1002 -1.0241 8.1387 -0.9535 -0.0451 7.9659 1.7719 -1.1778 -7.2122 1.6250 0.2244 -6.6690 -1.0287 2.3877 2.8816 -1.8265 0.9552 -2.6541 3.1910 -1.6581 -6.9907 -1.1454 0.7843 6.7125 -1.7058 1.9345 1.6041 -0.9783 -0.0145 -3.4446 -2.5312 -1.0676 5.8490 -0.4632 -0.1812 1.8267 -0.6309 1.2042 3.7432 2.0749 0.3028 -5.2205 -1.1478 1.4049 -1.3741 3.5766 -1.5023 -5.5292 0.9863 0.8489 -2.2564 -1.3893 -0.1191 5.5123 -0.7631 0.9784 0.8883 0.4122 0.5625 -3.6381
-1.1115 -2.0813 2.8952 2.0626 -0.3763 5.1406 -4.4856 -1.4846 7.4471 -5.6221 0.8157 6.2277 2.1191 -1.3050 -8.3909 2.6627 -2.7805 -5.9974 -1.9036 2.9300 1.3574 4.2624 0.3917 -0.1416 1.0745 1.2930 -7.9026 -3.6560 2.4825 4.9442 0.5653 2.3949 -0.0010 4.5018 -1.1932 -2.5082 -0.9857 2.6101 -5.7342 -1.2689 -2.1867 -2.1322 -1.0496 -1.6266 4.2378 2.3167 0.5680 4.1148 -2.7492 -1.4036 5.8874 0.2872 1.7821 4.0152 -0.0801 -0.5835 -4.9972 0.9639 -1.0228 -0.5706 -1.8452 0.9462 3.2697 1.9087 -0.0435 1.3115 2.0756 -0.8207 -4.0725 -0.9691 1.3901 -5.7880 -0.0469 -2.1914 -2.1514 -4.0909 -1.0267 6.1600 -4.2493 0.4809 6.1138 1.8416 -0.8123 -7.0892 1.5208 -1.9602 -6.1565 -0.6750 2.6386 2.0101 3.2744 -0.5225 -0.5878 0.6686 0.1492 -7.1636 -3.6926 1.0692 4.8286 0.1354 1.6810 1.1543 3.3069 -0.5543 -2.0942 -2.3702 -0.9795 4.5815 1.0364 0.7836 3.3337 -0.9596 2.0571 3.3808 1.0369 -1.4560 -4.8063 1.9115 -0.0655 -0.1061 0.2818 0.5704 -5.7570 0.8166 -0.9738 -1.9883 -2.2982 0.5397 4.5566 1.3539 1.1417 1.8859 2.1240 -1.2650 -2.7171
-4.5649 -2.1629 4.9662 2.1560 -1.3740 3.1623 -2.4105 -0.0614 9.5243 -2.0088 2.5206 8.4976 2.8442 -2.3081 -7.8488 1.1952 -2.5981 -5.5557 -3.5277 1.0350 1.4666 2.9622 -1.7973 0.0999 4.1779 0.2166 -7.9969 -1.2825 2.6206 5.7361 -1.3865 1.7863 -0.3251 3.4353 -1.9606 -2.7062 3.2230 3.3401 -7.4201 -1.8535 0.5066 -3.6258 -3.2128 -1.8418 5.2504 1.7390 -0.0377 2.9415 -2.6980 -0.8717 7.3530 -0.5057 0.5342 3.4421 1.1466 1.0179 -6.1135 -0.3084 -1.0551 -1.3331 -2.7802 0.8321 4.1185 1.0400 0.2573 0.1196 1.8396 -0.1539 -4.1916 2.3665 2.4671 -7.4046 -1.1092 -0.4197 -3.3447 -2.7953 0.2712 8.1980 -1.8747 1.3661 7.6850 2.6802 -1.2744 -6.8957 1.3140 -1.3781 -6.2631 -2.1752 1.2218 1.8589 1.9204 -1.7899 -0.8591 2.8289 0.0664 -7.5803 -2.2413 1.7196 6.2611 -1.2716 0.8264 0.7123 2.4145 -1.1585 -2.1394 -3.1908 -0.5616 6.0515 0.3132 -0.0672 2.4437 -1.8859 0.3893 3.0962 1.0297 -0.1917 -5.3584 0.7012 -1.0577 -0.3209 2.4697 1.1945 -6.6256 0.1031 -0.2945 -2.4773 -2.2912 0.4750 5.4013 0.1763 0.7145 1.1499 1.2977 -0.9635 -3.1501
-1.6039 -2.3288 2.8108 2.0583 -1.0299 4.7617 -4.5380 -1.6528 7.2757 -5.6900 0.5430 5.9553 2.4910 -0.0832 -8.2109 3.6405 -1.4875 -6.0034 -1.6879 3.0851 1.5562 4.1689 1.1419 -0.2518 0.1713 1.4442 -7.4342 -3.8325 2.2991 4.6713 0.7384 2.5358 0.1922 4.5687 -0.2997 -2.7273 -2.5148 0.6911 -5.6624 -0.9025 -2.3708 -2.2854 -2.6575 -1.7790 3.5805 2.3167 0.2511 4.2089 -2.6067 -1.4176 5.9694 0.3968 1.6395 4.1637 0.1095 -1.3868 -5.1304 1.2923 -1.0510 -0.4782 -1.7164 0.9224 3.3155 2.1390 0.0768 1.3730 1.9542 -0.4297 -4.0111 -1.7267 -0.2173 -5.8720 0.2944 -2.2444 -2.0754 -4.0071 -1.1644 6.0543 -4.2880 0.3248 5.9494 1.9199 -0.0833 -6.9131 2.2432 -1.3868 -6.2106 -0.4947 2.6817 2.2056 3.4128 0.0102 -0.6530 0.4205 0.1092 -7.0157 -3.7030 0.8877 4.6714 0.2930 1.7589 1.2968 3.3079 0.0110 -2.1594 -2.0612 -0.9869 4.7266 1.1048 0.6672 3.4086 -0.8219 2.0109 3.5238 1.5158 -1.4697 -4.8785 2.0282 0.0841 -0.0385 -0.2471 -0.1152 -5.6704 0.9914 -0.9377 -1.8679 -2.2390 0.5127 4.5677 1.4984 1.1722 2.0259 2.2634 -0.9382 -2.7148
-1.1815 -2.9227 6.4613 2.4329 -2.1574 3.0709 -4.0356 0.5189 9.1624 -4.4507 2.4854 7.2181 3.0325 -1.5087 -8.5409 0.8194 -2.0585 -6.8586 -2.3833 2.2226 2.7428 1.8120 0.2625 -0.4891 4.8804 0.3877 -7.3671 -2.2421 2.8919 5.4648 -2.0529 0.7796 0.3930 2.2765 0.4842 -3.1314 4.1652 3.4388 -5.5905 -2.1766 -2.7783 -4.7041 -0.7140 -1.5902 6.5871 2.0807 -1.0537 2.2555 -2.3078 -0.3843 7.8637 0.7796 0.5311 3.4312 1.6932 1.3105 -5.8352 -0.8156 -1.9135 -1.7909 -1.3543 0.2181 4.4273 -0.2266 -1.4335 0.4600 0.0578 -0.1572 -4.9376 3.4022 2.7851 -6.2951 -1.2956 -2.6507 -3.8660 -3.5231 0.3590 7.8484 -3.2515 1.7282 7.2592 2.8294 -0.8401 -7.3105 1.3472 -0.7510 -6.9756 -1.1594 1.5678 2.4642 1.1487 -0.6184 -1.3794 3.4670 0.5424 -7.3258 -2.7006 1.6067 5.8579 -1.4354 0.3592 1.5971 0.9885 0.0879 -2.7011 -1.9034 -0.6620 6.5311 0.6672 -0.6212 2.5894 -0.4855 1.1163 3.7485 1.2791 -0.0375 -5.6428 -0.2421 -0.9669 -0.8891 3.0992 1.3349 -6.0748 -0.9845 -1.3872 -3.1199 -1.5476 0.6149 5.7815 -0.1074 -0.3050 1.3146 0.3187 -0.8356 -3.7044
-3.2369 2.0521 7.1969 3.8979 0.3307 2.6543 -4.9164 -2.9143 5.3351 -2.3235 -3.7126 4.5916 -0.5115 -3.5047 -6.6644 -0.4695 -2.4431 -4.0148 -2.2861 2.3522 2.9742 3.9934 1.2498 -0.7626 1.7773 -2.7289 -8.1922 -0.6609 -1.6428 3.5757 -0.6433 3.7401 1.0810 3.2357 0.3175 -3.3231 3.3286 0.8068 -8.1196 -2.3512 0.0145 -1.2580 -3.5777 1.5562 5.9122 3.2298 1.5501 2.9322 -4.1776 -0.7013 5.4991 1.0927 1.4339 3.9546 1.3056 0.0969 -5.9369 0.5723 0.0772 -0.1619 -0.9420 0.8945 4.9930 1.6598 2.1460 0.3638 0.3812 0.2624 -3.8000 2.2904 0.1780 -7.9887 -1.2271 -0.4217 -1.4700 -3.7946 -2.0717 5.5509 -2.7462 -2.3625 4.4917 0.4866 -2.6160 -6.1908 -0.1106 -1.6831 -5.1573 -0.8768 2.4512 3.0960 2.8248 0.4830 -0.9868 1.0576 -1.8357 -7.3553 -1.5480 -1.4484 4.6665 -0.2892 2.5165 1.7027 2.2754 0.7470 -2.3703 -3.0699 0.1379 5.8052 1.7503 1.3489 2.7005 -0.3020 1.2188 3.7711 0.9132 -0.6279 -4.7743 1.7937 0.7591 0.0851 1.9953 -0.7523 -6.8532 0.0199 0.4034 -1.4352 -2.0122 -0.0010 4.7220 1.2176 2.3695 1.7000 0.9739 -0.0265 -2.5404
-4.3093 3.0414 3.1236 1.5977 -2.4553 3.5893 -5.5833 -0.9932 6.6861 -3.1599 -0.8061 8.0951 3.9460 0.4378 -7.5469 4.3020 -1.2036 -5.2441 -1.2449 3.0740 1.9986 2.9727 -2.7151 0.2889 1.3972 1.7370 -7.6303 -0.8745 -0.1906 6.5005 1.1082 2.6156 0.4123 3.1271 -2.8888 -2.5416 -1.8121 0.5196 -6.7956 -1.1007 1.0935 -3.1329 -3.9578 1.6678 3.1664 2.1382 -1.1805 3.2795 -4.6565 0.2587 4.9386 0.5168 0.4654 3.8241 0.6809 -1.2931 -5.7128 0.0739 -0.7676 -0.7583 -1.3508 1.7506 4.4655 1.9998 -0.1081 0.4908 1.9839 -0.5632 -3.8615 -0.8039 -0.1417 -6.9946 -0.7140 0.0008 -2.7438 -4.5965 -0.0364 6.3309 -3.2262 -0.5820 6.6961 2.9354 0.2538 -6.5701 3.0746 -1.1179 -5.9473 -0.1486 2.2863 2.4299 1.9251 -2.2859 -0.5635 1.5746 0.3888 -7.2210 -2.1460 0.4010 6.2959 0.4881 1.6318 1.2218 2.4963 -1.8055 -1.8789 -3.7271 1.2878 4.6093 1.0216 -0.3140 2.7474 -0.6193 1.2011 3.3798 1.9157 -1.4025 -5.0079 1.1347 -1.1751 0.1026 0.4762 0.0191 -6.2394 0.5557 -0.2300 -1.9888 -2.3148 0.7766 4.8378 1.5103 0.5895 1.6255 1.3936 -1.2419 -2.7574
-3.3403 -3.0686 5.0067 2.5153 -0.7835 3.6314 -3.4782 0.6770 9.0732 -3.7009 2.8946 7.3803 3.6457 -0.7195 -8.0635 3.4725 -2.0980 -5.5633 -3.2015 0.2474 0.9539 4.1499 -0.3557 0.1924 2.2427 1.7768 -8.0617 -2.3625 2.6576 4.8617 -1.0735 1.5016 -0.5247 4.4307 -0.8011 -2.6158 -0.8342 2.6961 -6.5643 -1.4580 -1.4145 -2.9116 -2.3592 -2.1747 5.5063 1.9080 0.4158 3.1786 -2.8196 -0.6353 7.2479 -0.4601 0.4032 3.3553 0.3307 -0.2291 -5.6846 0.8222 -1.4515 -0.7897 -2.8287 0.0800 3.6723 1.5289 0.5834 0.2474 2.0175 -0.2218 -4.0382 -0.4386 1.5792 -6.8660 -0.2987 -1.7427 -2.7086 -3.5449 0.5167 7.6653 -2.9635 1.7463 6.9924 2.8925 -0.2352 -6.9631 2.3866 -1.4034 -6.1477 -2.0003 0.7250 1.5389 3.1620 -1.0025 -0.5923 1.7295 0.5893 -7.4769 -3.0537 1.5917 5.4906 -0.8816 0.5803 0.5350 3.1969 -0.4620 -2.0053 -3.0382 -0.8720 5.8606 0.6145 0.0567 2.4858 -1.6997 -0.0503 2.8120 1.3991 -0.9610 -5.0822 1.7917 -0.8024 0.0282 0.8079 0.9540 -6.3271 0.7352 -0.8590 -2.0894 -2.4686 0.2705 5.0347 0.4734 0.8039 1.1700 2.0513 -1.0035 -2.8447
-4.7889 2.2985 5.5917 2.9006 0.2630 4.4161 -3.8048 -3.0246 5.7932 -1.0609 -2.8017 6.2423 1.5529 -3.1586 -8.0717 1.2537 -3.3770 -5.2101 -2.6604 2.9605 2.8246 2.1846 2.0499 -0.7577 2.8152 -0.7303 -8.8535 0.1346 -0.7532 4.6591 -1.2571 2.0210 0.5929 2.4434 0.9014 -3.2950 2.1653 2.7101 -7.2126 -1.1905 -3.4561 -1.8893 -4.1870 1.4816 4.6033 2.6587 1.3357 3.5183 -3.8706 -0.7873 5.1198 0.7179 2.5571 4.1842 1.0651 0.2279 -5.7974 0.4582 -1.1373 -0.3260 -1.3219 1.8162 5.2073 1.1691 0.3548 1.3058 0.2790 -0.9911 -3.9697 1.6923 1.6234 -7.4963 -0.1777 -2.8172 -1.6734 -3.1916 -1.7496 5.9141 -1.7681 -1.8792 5.4302 1.9120 -2.1416 -7.1483 1.0001 -2.1852 -5.9387 -1.2689 2.7686 2.8407 1.8671 0.6870 -0.9942 1.8253 -0.7953 -7.8371 -1.0457 -0.5538 5.4141 -0.8270 1.6668 1.9030 1.3873 0.5351 -2.4239 -3.2916 0.4953 5.3022 1.1680 1.4875 3.3749 -0.6947 2.6105 4.2231 1.2283 -0.9772 -5.0396 0.7685 0.2283 -0.0538 2.0524 0.3252 -6.8305 -0.0731 -1.3187 -1.6390 -1.8590 0.5662 4.7775 0.7015 1.5589 1.9243 0.9383 -0.8957 -2.7051
-4.1931 -1.3852 4.9308 -2.1483 -2.6844 1.2670 -1.7397 -1.8203 9.2921 0.5044 -0.3298 8.5179 1.8480 0.0279 -8.6185 0.9703 1.5188 -6.3700 -1.5359 3.4096 3.0250 -2.5475 -0.7280 -1.8005 2.9749 -2.5113 -7.9493 0.5734 0.4328 5.7700 0.2973 2.7340 0.9177 -1.3241 -0.9951 -4.3790 5.0163 -3.5409 -5.4448 2.9136 2.6866 -2.3893 -4.3024 -0.1819 5.6737 -0.9806 -1.9367 1.5621 -2.8936 -1.0518 7.4079 -1.3244 -0.2315 3.1663 3.6795 -0.5045 -4.9704 -0.0125 1.8801 -1.7985 -1.9775 1.3714 4.8357 -0.3058 0.0709 -0.3150 1.4343 -0.4203 -4.2951 4.8460 -2.3533 -5.6671 1.8597 2.3626 -2.9170 -1.8438 -0.7805 8.3318 -0.5219 -0.6616 7.5948 1.9973 -0.4428 -7.2885 2.1473 0.7339 -6.3536 -0.9715 2.1238 2.8220 -1.6420 0.2182 -2.3413 3.2218 -1.3296 -7.2025 -0.6083 0.4318 6.5529 -0.7701 1.8979 1.3402 -0.6521 -0.4791 -3.2435 -3.0603 0.0406 6.5115 -1.3785 -0.4951 1.7706 -1.8589 1.0612 3.4472 2.4852 0.2819 -4.9413 -0.9414 0.9634 -1.2225 3.5055 -1.6911 -5.7536 1.0379 1.1898 -2.4894 -1.8155 0.2295 5.6628 -0.4340 0.4447 1.0451 0.4706 0.4436 -3.6942
-4.1203 0.4055 5.9583 3.7393 0.7494 2.6482 -4.1478 -2.8260 2.4734 -1.5137 -2.9200 1.4842 2.5467 -3.0078 -6.6298 3.0695 -1.7039 -4.1477 -2.2254 2.5201 4.5264 -0.1625 3.5229 -1.1433 0.3103 -1.8857 -8.0226 0.1554 -0.7828 2.1918 -1.5331 3.4113 1.9077 -0.1743 1.7371 -3.3483 -2.9571 -0.7671 -6.3372 3.3912 -1.8370 -0.2531 -2.7916 -0.0625 6.1121 3.0124 1.9638 2.7235 -3.4502 -1.3395 4.1446 1.3633 1.9457 4.4069 -0.5353 -1.3080 -4.5219 2.5690 1.2562 -0.3309 -0.2293 0.2514 4.8479 0.5807 1.7017 0.8495 0.7911 -0.9391 -2.6377 -2.0254 -1.5496 -6.2293 3.2009 -0.8692 -0.9767 -3.0457 -2.3653 3.2422 -1.9763 -1.8497 2.2954 1.7313 -1.9753 -6.1065 1.7573 -2.0083 -4.5913 -0.8938 2.6035 4.0752 0.8726 2.5845 -1.3764 0.3168 -2.1335 -6.6241 -0.8156 -1.2847 3.0846 -0.8018 2.4076 2.5883 0.3086 1.3599 -2.0686 -2.3480 -0.8981 4.9289 1.5715 1.6405 3.0331 0.0275 1.6474 4.8064 0.7732 -0.9773 -4.0585 1.5402 2.2139 -0.0625 -0.6136 -1.1494 -5.9371 2.0256 0.0465 -0.8544 -1.3081 -0.2153 4.0467 0.6329 2.3991 2.0933 1.3818 0.2870 -2.2106
-1.5933 -2.4149 3.3284 2.0720 -0.9006 4.7502 -4.8055 -0.9632 7.7050 -5.3777 1.5459 6.5836 2.3664 0.7447 -8.2727 3.5874 -1.2825 -6.6697 -2.0649 2.5837 1.3215 4.0118 0.3559 -0.0064 0.4070 2.2723 -6.8312 -3.2843 2.7263 5.0480 0.1222 1.7429 -0.2718 4.7672 -0.9227 -2.4973 -2.0593 1.4443 -4.8109 -0.6992 -2.9980 -2.7415 -1.3753 -1.7716 4.5758 2.2778 0.1005 3.7692 -3.0281 -1.2173 6.2034 0.3539 1.4859 3.8084 0.2643 -0.9905 -5.2097 1.1252 -1.6007 -0.9509 -1.8960 0.7727 3.3787 1.5687 -0.5775 1.0739 2.3872 -0.5938 -4.2254 -1.4541 0.5202 -5.3299 0.4917 -2.7243 -2.7588 -4.2813 -0.5856 6.4424 -4.1165 0.9242 6.3896 1.9836 0.4900 -6.9319 2.2055 -0.9743 -6.6061 -0.7891 2.2594 1.8521 3.2656 -0.6694 -0.6449 0.5256 0.8607 -6.7420 -3.5588 1.3357 5.0394 -0.1544 1.1767 1.0021 3.4512 -0.5373 -2.1402 -2.5905 -0.9294 4.8824 0.9506 0.4022 3.1130 -0.9327 1.8166 3.2938 1.6614 -1.3075 -5.2258 1.7936 -0.5159 -0.3211 0.0374 0.4085 -5.3788 1.0726 -1.4027 -2.3589 -2.2912 0.5555 4.7293 1.1410 0.6702 1.6263 2.4615 -1.3153 -2.9907
0.4996 -1.8308 4.6489 3.5406 0.0872 3.1387 -4.0890 -3.7633 3.7235 -5.2989 -1.3058 3.3734 1.3659 -3.4102 -5.5843 2.2080 -2.1550 -3.1103 -1.9767 3.0185 1.4082 2.2296 3.5922 -1.7355 -0.1786 -1.5560 -7.1533 -3.6103 0.9845 3.5016 0.3929 4.3017 0.4336 0.2500 1.8759 -2.6539 -3.0260 0.3959 -6.0475 2.5846 -2.1454 1.2206 0.2853 -1.9453 3.2520 3.0190 1.3919 3.3275 -1.9615 -2.7622 3.5848 0.6593 1.5776 3.5069 -1.1123 -0.7558 -3.6977 3.0986 0.5352 0.1503 -1.0140 0.5023 2.1937 2.8599 2.8671 0.8386 0.1613 -0.7713 -1.6911 -2.4478 -0.5498 -5.5296 2.2915 -1.6067 0.1701 -3.3298 -2.6958 3.1775 -3.9084 -1.3769 3.6535 0.9593 -2.1266 -5.1300 0.8804 -2.1291 -3.6126 -0.7137 2.9268 2.0395 2.3153 2.2066 -1.4886 -0.3701 -1.7795 -5.7624 -3.1832 -0.2497 2.9476 0.3911 3.0062 1.0129 0.9617 1.5402 -1.4839 -1.1826 -1.7927 2.8913 1.7219 1.5084 2.5612 -0.6220 1.6743 2.8931 0.1813 -0.8739 -3.1183 3.0196 1.9092 -0.1864 -1.0077 -0.5579 -5.1132 1.8568 -0.1796 0.0257 -1.6775 -0.3707 3.1103 1.7238 2.7280 1.6647 1.2530 0.0603 -1.3509
-1.2665 -2.8599 6.1062 1.6274 -2.7035 3.2652 -2.9610 1.0705 9.5579 -3.9766 2.7692 7.5851 2.8251 -1.8169 -7.4115 0.1279 -1.3424 -6.6803 -2.7906 1.7363 2.3410 2.4722 -0.8563 -0.7572 4.7297 -0.0714 -6.1807 -2.6205 2.7331 5.1001 -1.9302 0.6403 -0.1031 2.8922 -0.8325 -3.5912 4.5246 3.3110 -5.2563 -2.8326 -1.5496 -4.4212 -0.7068 -1.5905 6.4006 1.6847 -1.5920 2.3846 -1.8008 -0.1375 7.9209 0.3982 0.1873 3.2951 1.6728 1.9314 -6.1127 -0.7590 -1.6687 -2.1473 -1.7768 0.0706 4.2724 -0.0916 -1.5809 0.1153 0.4020 0.7367 -4.5315 3.8125 2.7302 -6.0631 -1.6302 -1.6608 -4.2436 -2.9274 0.6917 8.1906 -2.8530 1.9415 7.3334 2.4781 -0.7935 -6.4982 1.0779 -0.3063 -6.7656 -1.4774 1.2388 2.1557 1.5190 -1.3044 -1.7058 3.4503 0.3641 -6.6127 -2.8258 1.5594 5.8684 -1.4975 0.1159 1.1417 1.6790 -0.4738 -2.9576 -1.8389 -0.6056 6.5763 0.3314 -0.9232 2.4018 -0.8651 0.8180 3.4798 0.7277 0.8836 -5.8975 0.1168 -1.0789 -1.1937 2.9901 1.5239 -5.7418 -0.8271 -0.8305 -3.2942 -1.7094 0.5605 5.6078 -0.1034 -0.4732 1.0154 0.5287 -0.5614 -3.9484
-1.6672 -0.6566 -0.3059 2.8240 -0.3525 2.9755 -3.2585 -3.8592 3.6655 -4.0421 -1.7989 5.4219 1.8920 -1.6098 -6.3709 2.7941 -2.4183 -3.7730 -1.9685 4.0190 2.6218 0.5051 3.0104 -1.4406 -0.5621 -0.1547 -6.3236 -2.3278 0.4799 5.4268 0.3658 4.7875 1.1754 0.7112 1.0464 -3.5015 -3.3926 -0.4345 -4.0803 4.0834 -2.2847 -0.1292 -0.9439 -0.8258 0.9039 2.7094 1.0438 3.1848 -1.9944 -2.3073 2.4471 0.5046 1.6167 3.8232 -0.8707 -2.3369 -3.4147 2.9543 0.6576 -0.2004 -1.5977 1.2919 2.6960 2.2671 2.7081 0.7261 0.7391 -1.6006 -1.8463 -2.5909 -1.2442 -4.5152 3.6732 -1.4041 -0.8715 -3.1015 -2.4917 3.3214 -2.9093 -1.6669 4.5802 1.1585 -1.3469 -5.1876 1.4417 -2.4175 -4.1649 -0.6780 3.5090 2.9092 1.4776 1.9789 -1.4584 -0.3212 -1.2969 -5.5155 -2.7078 -0.2037 4.2444 0.1505 3.4667 1.6443 0.8719 0.7625 -2.1220 -1.9522 -0.9543 2.0169 1.3526 1.4957 2.6842 -0.7906 2.1262 3.5169 0.4844 -2.3657 -2.9957 1.8798 1.5845 -0.0539 -1.1246 -1.1996 -4.2311 2.4407 -0.5924 -0.6322 -1.6343 -0.0414 3.1852 1.4847 2.8041 1.9131 1.6703 -0.5242 -1.9493
-1.2040 -2.5164 0.9121 3.3917 -0.0262 2.7508 -3.6825 -3.7922 5.0348 -5.0202 -1.3219 5.1414 0.5589 -1.1723 -7.4832 2.5702 -0.1781 -5.7005 -2.1762 3.3299 2.8618 1.0998 4.0212 -1.4046 -1.8574 -1.9397 -6.1675 -3.2856 0.9646 5.0252 -0.0926 4.5512 1.3602 1.6381 2.6216 -3.8246 -2.4853 -3.5132 -3.2399 3.4755 -1.8663 -0.5046 -2.0476 -1.7472 1.7551 2.9841 1.2597 3.1807 -1.8700 -2.7617 3.9603 0.7628 1.4470 3.9476 0.7017 -2.5066 -3.6050 2.6606 0.9490 -0.2867 -1.2727 0.7030 2.9724 2.2451 2.9373 0.9098 0.9755 -0.1845 -3.3337 -1.3633 -3.5336 -3.7325 3.2577 -0.9549 -1.2863 -3.2627 -2.6823 4.2544 -3.6072 -1.4055 4.9977 0.3764 -1.0979 -6.0772 1.7161 -1.2629 -5.3832 -0.8031 3.0783 3.0920 1.8980 2.8511 -1.4660 -0.5618 -2.2119 -5.6505 -3.1205 -0.1949 4.2276 -0.0272 3.2070 1.8043 1.3795 1.9884 -2.5856 -1.4259 -1.6838 3.1397 1.5492 1.4816 2.7573 -0.6161 1.7125 3.7255 1.5391 -1.3770 -3.8763 1.8140 2.0902 -0.1566 -0.6109 -2.3090 -4.1353 2.1051 -0.0006 -1.2018 -1.6598 -0.3544 3.8406 1.4158 2.8213 2.0547 1.9377 0.5805 -2.6043
1.9458 0.0147 6.8571 -4.7093 0.4262 1.4815 -2.4081 1.8056 9.6881 -4.1786 -0.0051 8.4565 3.0147 -3.1502 -7.7497 0.4024 -2.2694 -7.0090 1.3708 -0.0860 3.5376 -2.8240 -0.6540 -2.2141 5.0949 -1.8722 -6.2620 -3.7139 -0.4371 5.6744 1.1846 -0.3786 0.7380 -1.8384 -0.4468 -4.8982 5.1694 1.8436 -5.3832 1.6874 2.8006 -3.5777 0.9407 0.9538 6.5015 -3.6397 -0.4409 1.1474 -0.8409 1.3977 7.9996 -2.1793 -0.6368 2.9995 2.4493 0.6551 -6.2428 0.2720 1.1787 -1.8261 -0.9464 -0.7129 5.0012 -1.4043 0.7762 -0.2585 1.1151 -0.7107 -4.8093 4.6907 1.0700 -6.1997 2.0221 1.7034 -3.1565 -1.9663 0.8825 8.7012 -3.1178 0.6178 7.7449 2.7860 -2.1482 -6.7679 1.5124 -1.3898 -7.0919 0.1873 -0.5023 2.8814 -1.7273 0.1647 -2.5825 3.9561 -1.1886 -6.7642 -2.6731 -0.3062 6.6272 0.1250 0.1534 1.5194 -1.0045 -0.4772 -3.7522 -0.3716 0.4495 7.0475 -2.3696 0.0780 1.7847 -1.0389 -0.1368 3.7005 1.3270 -0.2238 -6.1286 -0.7568 0.2825 -1.4219 3.6787 0.0176 -5.8841 1.0896 0.5815 -2.8237 -1.4186 0.2302 5.9620 -1.2020 -0.1221 0.8302 0.3073 0.2126 -4.0773
-2.1219 -2.8930 6.0183 1.7096 -2.6544 4.5417 -5.0678 0.8837 8.2608 -5.2305 2.6358 6.0688 3.2180 2.6730 -7.3999 4.3533 1.0286 -5.3641 -1.6029 2.1888 2.0256 3.6845 -1.3416 0.0087 0.3727 2.4743 -7.5652 -2.8094 2.8476 4.5614 -0.1866 0.9090 0.0131 4.2287 -1.3721 -2.8183 -1.7761 -0.2399 -7.2418 -1.6152 -0.9545 -3.7350 -1.6110 -1.5890 6.2430 2.0404 -1.7835 3.4723 -3.2624 -0.2001 7.2352 0.6730 0.0907 3.9727 1.3213 -0.8047 -6.2580 0.4023 -1.7242 -1.4898 -1.7075 0.2001 3.9648 0.9927 -1.7018 0.7873 2.0413 0.0772 -4.1737 -0.5719 -0.3189 -7.4362 -0.5067 -1.4391 -3.5608 -4.4307 0.5869 7.0275 -4.0564 1.8869 6.3416 2.4435 1.8081 -6.5864 3.2751 0.6092 -6.1832 -0.4442 1.4231 2.3022 2.7235 -1.6988 -0.9708 1.2194 1.3543 -7.3538 -3.3325 1.6187 5.0395 -0.3235 0.3067 1.2910 3.0147 -0.9237 -2.2430 -2.7205 -0.5983 5.9806 0.8011 -1.0116 3.0757 -0.4848 0.8810 3.7158 2.4311 -0.4189 -5.4473 1.3409 -1.2884 -0.5169 0.4679 0.3012 -6.5591 0.5214 -0.8818 -2.6303 -2.2040 0.6195 5.2310 0.8935 -0.5494 1.6255 1.8964 -1.0168 -3.2704
0.7008 -2.5097 1.2349 3.3877 -0.0928 2.7155 -3.8329 -3.9078 3.7956 -5.2045 -1.4785 3.4672 1.3948 -3.2485 -5.8326 2.6180 -1.5723 -3.8685 -2.1044 3.1370 2.2947 0.8031 4.0771 -1.2093 -1.2980 -2.6031 -6.3961 -3.5787 0.8597 3.5509 0.0732 4.8246 1.4989 -0.0641 1.8424 -2.6974 -3.8227 -1.2036 -3.7372 4.3249 -1.3062 -0.1361 0.2650 -2.0075 2.4882 3.1339 1.2954 2.8623 -1.8264 -2.8518 3.2147 0.8430 1.3051 3.4622 -0.9215 -1.4033 -2.9750 3.3774 1.5789 -0.3238 -1.0419 0.5794 2.2072 2.5155 3.4691 0.9555 0.9221 -0.7274 -1.7371 -2.8906 -1.9419 -4.0193 3.7372 -0.5875 -0.9260 -3.2465 -2.8242 3.0869 -3.7957 -1.5198 3.6416 0.7085 -2.2088 -5.1611 1.2738 -2.0170 -3.7671 -0.7662 2.9547 2.7117 1.6088 2.9323 -1.3703 -0.7640 -2.5455 -5.0822 -3.1632 -0.3417 2.9223 0.1708 3.4156 1.6275 0.7681 1.6884 -1.5627 -1.2330 -1.8207 2.4282 1.7283 1.5901 2.3824 -0.5189 1.5216 3.1262 0.4333 -0.9703 -3.0447 2.4932 2.6603 -0.1853 -1.4895 -1.4791 -4.2795 2.6524 0.3721 -0.5544 -1.6497 -0.4587 2.9630 1.5978 3.0444 1.9557 1.6808 0.4797 -1.7276
-3.5737 1.0922 6.7060 3.6845 0.3797 3.1328 -3.9894 -2.8189 2.7188 -1.2072 -3.2371 2.7371 -0.6722 -3.4527 -6.4995 -0.7840 -2.5277 -3.8020 -2.2373 3.0323 3.6506 3.6975 0.6499 -0.1893 1.7085 -2.6128 -7.8518 0.3984 -0.9698 3.2012 -1.0262 3.3026 1.1106 2.9523 -0.2023 -2.7628 3.2654 0.8982 -7.5115 -2.6944 -0.1100 -0.7354 -3.5864 1.1011 5.2880 3.1654 1.6964 3.0351 -3.6749 -0.7990 3.8637 1.2582 2.1374 4.3740 1.1164 0.0914 -5.4805 0.1504 -0.1007 0.2767 -0.6907 0.9309 5.0576 1.3828 1.9072 0.6582 0.1153 0.1352 -3.3716 2.2129 0.2802 -7.4660 -1.6078 -0.5344 -1.0986 -3.1340 -2.0854 3.5810 -1.7673 -1.9490 2.9330 0.2987 -2.5941 -5.9260 -0.3531 -1.7118 -4.8796 -0.8475 2.9268 3.4630 2.4487 0.0342 -0.4503 0.9422 -1.7597 -7.0142 -0.8544 -1.1366 3.8284 -0.5007 2.4194 2.0872 2.0027 0.3439 -1.8620 -2.8437 -0.1159 4.7963 1.6590 1.6162 3.1112 -0.1510 2.1347 4.5482 0.6639 -0.6979 -4.3839 1.4149 0.4885 0.5608 1.8534 -0.7094 -6.4028 -0.3280 0.2357 -1.0250 -1.4998 0.2031 4.1452 1.0048 2.3526 1.9509 0.6272 -0.2642 -2.1026
-4.4783 1.2662 3.4745 -2.9118 -1.2397 0.6106 -3.7011 -3.0702 6.9976 -1.1733 -2.1094 7.7820 3.2468 -0.1180 -7.6323 3.9697 0.6807 -5.0009 0.5563 2.9903 3.9222 1.2230 4.0620 -1.2858 0.7887 -1.5605 -7.7847 0.3245 -0.8312 5.7244 -0.3264 4.1514 1.4737 2.4535 2.7341 -3.4803 -0.6230 -3.9054 -5.8073 1.0447 -2.4245 -1.0031 -3.9020 -0.0274 3.4033 -1.9194 -0.3388 0.1460 -3.6863 -1.5802 5.1869 -0.5122 0.0392 2.0416 1.8831 -2.2431 -4.3577 1.4573 0.6252 -0.1001 -1.2841 0.9435 4.1223 -0.4396 2.0288 -0.3934 1.5738 0.0047 -3.6984 0.5383 -3.5642 -5.6265 1.7395 -1.4196 -1.0602 -3.1827 -1.8469 6.4933 -1.6655 -1.9337 6.4626 2.4506 -0.4252 -6.5002 3.3306 -0.5516 -5.2754 0.2725 2.2057 2.7781 1.7321 2.7423 -1.1962 1.7213 -1.7330 -6.7286 -1.0734 -0.6635 5.8914 -0.7745 2.8923 1.9286 1.6221 2.0718 -2.5463 -3.2223 -0.3166 4.7209 -1.5666 0.6088 1.2709 -0.2074 0.8245 3.1970 2.5138 -0.9926 -4.0752 0.9615 1.9625 -0.1468 0.9851 -2.1498 -5.4679 1.2100 -0.0513 -1.3322 -1.7105 -0.3403 4.5587 -1.2216 2.0047 0.7826 1.9833 0.5979 -2.4699
-0.9488 -2.4378 2.8042 2.0921 -0.2152 5.0052 -4.3508 -1.8683 6.9642 -5.7452 -0.0600 5.3232 1.2235 0.1532 -8.0491 3.1482 -1.2091 -6.4341 -1.8911 2.7358 0.9928 4.3131 1.6454 -0.4984 -0.8695 1.3593 -6.4914 -4.1198 1.8522 3.9565 0.7477 2.6792 -0.1145 4.8037 0.0222 -2.8490 -2.7269 0.2554 -3.9688 -0.0230 -3.0085 -1.7784 -2.1507 -2.0513 3.4489 2.3346 0.8595 4.1119 -2.3859 -1.4243 5.7680 0.2145 1.8789 3.8374 0.0881 -1.5408 -4.4972 1.7998 -0.9507 -0.3489 -1.6818 0.7534 2.9238 2.4742 0.5768 1.2919 2.0927 -0.4209 -3.9450 -1.9755 -0.5484 -4.5035 1.1024 -2.5330 -1.7325 -3.8119 -1.4158 5.7321 -4.3318 -0.0187 5.4372 1.1062 0.0311 -6.6427 1.7552 -1.2577 -6.1811 -0.7002 2.6304 1.7536 3.7014 0.3900 -0.7539 -0.3596 0.0547 -6.2581 -3.7499 0.4964 4.1379 0.3380 1.8560 0.9698 3.5387 0.2349 -2.2458 -1.8159 -1.0371 4.5235 1.1366 1.0037 3.2010 -0.9968 1.9894 3.0926 1.5058 -1.4771 -4.6967 2.3365 0.3434 -0.0991 -0.5331 -0.2887 -4.7906 1.4159 -1.0702 -1.7190 -2.2403 0.3783 4.1725 1.5504 1.5198 1.8309 2.5893 -0.8661 -2.6812
-3.5802 3.8150 5.1158 0.0100 -3.4183 3.0506 -3.9738 0.6566 9.6141 -1.3977 -0.4281 9.3720 3.9193 -1.7690 -8.4819 1.8692 -2.7956 -6.7737 -2.0331 2.6334 2.6028 1.1818 -3.1031 -0.5888 4.9314 0.7600 -7.7187 -0.4814 -0.8328 6.7037 -0.7476 1.7900 0.2122 1.4884 -3.5355 -3.4143 3.7831 3.3931 -6.1086 -1.4940 1.4865 -3.9638 -3.8520 2.4299 5.2661 0.6080 -2.2625 2.4864 -3.8476 1.4129 7.4054 -0.2097 -0.3427 3.6138 1.5744 0.8263 -6.2737 -0.6077 -0.3384 -2.0825 -1.1231 1.3635 4.9514 -0.7328 -1.1691 0.0948 1.8855 -0.9274 -4.7048 2.9818 2.6306 -6.6387 -0.7750 0.5163 -4.1544 -3.1028 1.0511 8.5637 -2.1751 -0.1009 8.2305 3.4371 -1.0652 -7.3520 1.9867 -1.4198 -7.0970 -1.0397 1.6232 2.5647 0.4723 -2.3844 -1.5860 3.5569 0.4256 -7.5978 -1.2498 0.2917 7.0951 -1.1471 0.8985 1.2404 1.3480 -2.2571 -2.8144 -2.9829 1.9126 6.3889 -0.4223 -1.1561 2.4629 -1.2317 0.6504 3.7195 1.3908 -0.5657 -5.9904 0.1088 -1.0097 -1.0483 2.9563 1.1558 -6.4099 0.2366 -0.0275 -3.1911 -2.0340 0.8200 5.9047 -0.2854 -0.3482 1.1763 0.7999 -1.2859 -3.8449
-0.2812 -0.3524 6.7354 2.6352 -0.1318 4.7297 -5.1656 -0.8717 7.4794 -6.0128 0.5869 5.2596 1.4913 0.6845 -8.3832 3.2173 -0.9210 -6.7750 -2.3756 1.4068 1.0423 4.0969 1.0726 -0.1775 -0.4812 2.0831 -6.8404 -3.9755 1.8461 3.7302 -0.1136 0.8741 -0.5032 4.8171 0.2918 -2.8668 -2.3849 1.1463 -4.1384 0.3291 -3.4900 -2.8062 -0.7672 -1.2655 5.7647 2.5205 0.7697 3.6413 -2.9870 -0.9174 6.6199 0.2907 1.5746 3.5274 0.1104 -0.9306 -4.8785 1.8836 -1.6878 -0.9080 -1.6265 0.1629 3.4115 2.0873 -0.4566 1.0721 2.2818 -0.2277 -4.2426 -1.7907 0.3436 -4.8475 1.4067 -2.9211 -2.7059 -4.3727 -0.8158 6.3042 -4.6364 0.4979 5.5910 1.3397 0.5531 -6.9793 1.8252 -0.8132 -6.5487 -1.0583 1.5699 1.5434 3.6436 -0.1173 -0.8070 -0.1193 0.7306 -6.6129 -3.8149 0.5680 4.3219 -0.1435 0.5647 0.8817 3.5325 0.1395 -2.2963 -2.2115 -0.9609 5.4311 1.1652 0.5782 3.0037 -1.0427 1.4102 3.0496 1.5173 -1.0767 -5.0890 2.2503 -0.4482 -0.3306 -0.3266 0.4017 -5.1468 1.5816 -1.4942 -2.2866 -2.3498 0.3180 4.6238 1.2591 0.6348 1.4818 2.7549 -0.9095 -3.0752
-2.0287 2.5524 5.8014 -3.5594 2.8795 2.2611 -3.8998 -2.2809 7.7608 -1.7261 -3.7538 6.7600 0.9895 -0.8572 -7.8829 1.6750 1.2145 -6.0836 1.8353 -0.4970 2.8159 -2.0120 2.8142 -1.9781 0.5756 -3.4001 -6.6468 -0.7183 -2.8665 4.2425 2.2280 1.9160 1.3996 -1.0560 1.3993 -4.2581 2.1507 -5.0840 -4.3878 4.2280 0.9479 -1.6735 -2.7537 1.4927 5.1981 -2.6646 2.4257 1.2599 -3.3165 -0.4920 6.3729 -1.6129 0.4123 1.9539 2.8699 -1.7464 -4.3171 1.5692 2.6438 -1.3622 -0.5510 0.0171 4.0559 -0.2089 1.7215 -0.1073 1.2094 -0.2245 -3.6334 2.6744 -4.0087 -4.6376 3.3194 1.5349 -2.2470 -2.8439 -1.6505 7.0534 -2.2516 -2.6364 6.0617 1.1231 -1.0857 -6.4905 2.1234 -0.1148 -5.9076 0.7986 0.0945 2.0531 -0.6334 2.6912 -2.2836 1.6016 -2.5021 -6.2531 -1.1421 -1.9816 5.2661 0.9852 1.5958 1.9936 -0.3886 1.3871 -3.0080 -2.2309 0.1890 5.7538 -1.4528 1.8315 1.9379 -0.5555 -0.2425 2.6577 2.3653 -0.4138 -4.4383 0.1896 2.7486 -1.0084 1.9283 -2.7180 -4.7837 1.8713 1.3658 -1.9316 -1.6326 -0.6808 4.6583 -0.1652 2.2270 1.2234 1.0938 1.1350 -3.2207
-4.2129 -0.1649 4.7907 4.1722 1.9378 3.0383 -2.9298 -4.0322 0.9696 -0.1707 -3.7540 1.3692 1.5534 -3.7815 -5.4166 2.6576 -1.9043 -3.5730 -2.3268 2.4660 2.5080 -0.0158 3.8461 -1.0358 -0.9586 -2.9365 -6.4944 0.7209 -1.1327 1.9939 -0.7243 4.8451 2.0768 0.0622 1.8514 -3.0696 -3.7224 -1.2253 -4.4393 3.9577 -1.1632 0.2088 -3.8755 -0.1223 3.4143 3.0928 2.5876 3.6892 -3.2949 -2.0177 2.1086 0.9259 1.6295 3.8492 -0.9327 -1.4172 -3.1772 2.7598 1.7361 -0.0243 -1.0424 0.3257 3.7857 1.9069 3.7047 1.0094 0.7995 -0.7644 -1.7718 -2.7837 -2.0017 -4.3541 3.5254 -0.3489 -0.5927 -2.4205 -3.1304 1.9408 -1.0506 -2.6490 1.4975 0.8883 -2.5924 -5.0241 1.2809 -2.2410 -3.6053 -1.0287 2.6630 3.0389 1.0465 2.9184 -1.1680 -0.6073 -2.8009 -5.1261 -0.4862 -1.6695 2.5070 -0.2477 3.5145 2.0674 0.4910 1.6265 -1.7367 -2.8242 -1.1753 3.1573 1.8232 2.2521 2.9439 -0.2889 1.3501 3.1643 0.4499 -1.0679 -3.1147 1.6395 2.5829 0.1808 -1.3477 -1.6180 -4.5271 2.2769 0.4492 -0.3924 -1.4912 -0.5582 2.7634 1.2558 3.5016 2.2742 1.4973 0.4811 -1.7041
0.9222 -2.2478 2.8608 3.4336 0.0226 3.1698 -3.7871 -4.0758 2.8066 -5.0498 -1.5733 2.8852 -0.1812 -1.5203 -6.0615 1.9571 -0.6580 -4.4024 -1.9775 2.9884 1.3725 2.1713 4.3728 -1.5284 -2.7010 -1.6434 -4.6921 -3.3369 0.6588 3.2474 0.3067 4.5813 0.7376 0.8686 2.4600 -3.1954 -3.4878 -2.7591 -1.4421 3.0967 -1.8052 0.3214 0.3444 -2.1542 1.5689 3.0703 1.3936 3.1570 -1.7535 -3.0257 2.3141 0.7022 1.3445 3.2548 -0.2921 -2.2784 -2.0217 3.4032 1.1854 -0.1395 -0.8733 0.4666 1.6892 2.8434 3.2990 0.9412 0.4628 -0.0508 -2.0071 -2.4718 -3.0026 -2.0789 3.0053 -0.9649 -0.5620 -3.1722 -2.9243 2.2482 -3.6413 -1.6932 3.0029 -0.3577 -1.2261 -4.6851 0.9255 -1.5070 -3.9412 -0.7259 2.8690 2.0243 2.5068 3.0018 -1.5354 -1.4752 -2.0829 -4.1284 -2.9921 -0.4497 2.4328 0.3861 3.2009 1.0578 1.3167 2.1472 -1.8884 -1.1447 -1.9145 1.6676 1.7939 1.5460 2.3610 -0.5668 1.4877 2.6269 0.7334 -1.3773 -2.4398 3.0934 2.5538 -0.2246 -1.5494 -1.9551 -2.6174 2.2863 0.3410 -0.4421 -1.4838 -0.6158 2.3828 1.7201 2.9109 1.7022 1.6709 0.6741 -1.7997

>  <OB_ATOM_TYPES> (1bybA1)
O.3 O.3 O.3 O.3 O.3 O.3 O.3 O.3 O.3 O.3 O.3 O.3 O.2 O.2 C.3 C.3 O.3 O.3 O.3 O.3 O.3 O.3 O.3 C.2 C.2 C.3 C.3 C.3 C.3 C.3 C.3 C.3 C.3 C.3 C.3 C.3 C.3 C.3 C.3 C.3 C.3 C.3 C.3 C.3 C.3

>  <ENSEMBLE_RMSD> (1bybA1)
0.000 1.683 1.914 1.995 2.005 2.163 2.169 2.199 2.268 2.293 2.326 2.336 2.338 2.370 2.414 2.475 2.477 2.568 2.651 2.773 2.795 2.867 2.884 2.952 2.968 2.996 3.020 3.042 3.078 3.081 3.095 3.129 3.133 3.146 3.153 3.154 3.225 3.235 3.235 3.236 3.256 3.266 3.304 3.400 3.464 3.815 3.931

$$$$
