
 OpenBabel03071213D

 22 23  0  0  0  0  0  0  0  0999 V2000
   19.0790   13.8670  162.6070 C   0  0  0  0  0
   24.7390   18.4600  157.3680 O   0  0  0  0  0
   17.8370   14.2390  158.8350 O   0  0  0  0  0
   21.3250   14.4200  162.0140 O   0  0  0  0  0
   25.5410   17.4740  155.2690 O   0  0  0  0  0
   25.5630   16.1140  157.3150 O   0  0  0  0  0
   17.8300   15.4390  156.7020 O   0  0  0  0  0
   18.9410   13.1800  156.9470 O   0  0  0  0  0
   19.7160   14.8860  160.4130 N   0  0  0  0  0
   21.5430   15.8490  154.5560 C   0  0  0  0  0
   20.6860   15.4520  155.5710 C   0  0  0  0  0
   21.9260   15.8510  159.6800 C   0  0  0  0  0
   22.8280   16.3870  154.8610 C   0  0  0  0  0
   22.7730   16.2440  158.6590 C   0  0  0  0  0
   20.1450   14.4100  161.6830 C   0  0  0  0  0
   20.6260   15.3070  159.3580 C   0  0  0  0  0
   22.3850   16.1220  157.2830 C   0  0  0  0  0
   21.1110   15.5890  156.9510 C   0  0  0  0  0
   23.2240   16.5140  156.1820 C   0  0  0  0  0
   20.2450   15.1870  158.0290 C   0  0  0  0  0
   24.8620   17.1990  156.5780 S   0  0  0  0  0
   18.6070   14.5040  157.5330 S   0  0  0  0  0
  1 15  1  0  0  0
  2 21  1  0  0  0
  3 22  1  0  0  0
  4 15  2  0  0  0
  5 21  2  0  0  0
  6 21  2  0  0  0
  7 22  2  0  0  0
  8 22  2  0  0  0
  9 15  1  0  0  0
  9 16  1  0  0  0
 10 11  2  0  0  0
 10 13  1  0  0  0
 11 18  1  0  0  0
 12 14  1  0  0  0
 12 16  2  0  0  0
 13 19  2  0  0  0
 14 17  2  0  0  0
 16 20  1  0  0  0
 17 18  1  0  0  0
 17 19  1  0  0  0
 18 20  2  0  0  0
 19 21  1  0  0  0
 20 22  1  0  0  0
M  END
>  <MOLID> (1c5cB1)
1c5cB1

>  <SMILES_CANONICAL> (1c5cB1)
CC(=O)Nc1ccc2c(c1S(=O)(=O)O)cccc2S(=O)(=O)O	

>  <FINGERPRINT> (1c5cB1)
0000000000000000010000000000001000000000110000000000000010000000000000000000000000000000000000000010000011010000000001100000000000000000000000000000000000000000000000000000000000000000000000000000000000000000000000000000000000000000000000000000001000000000000000000000000000000000000000000000000000001000000010000100000000000000011010000010000000000100011000000000000010000000000000000000000000000000100000000000000000000000000100000000010000000010100000000010000000000011010000000000000000000000000000000000000000000000000001000000000100000000000000000000000000000000000000000000100000000000000000000000000000000000000000000010000000000000110000000001000000000000000000000000100000000010000001100000100000100000000000000010000000010000000010000000000000000000000010000000000000000000010000000000100000000000100000000000000000000000000000000000000000000000000000000100100000000000000000001000000000000000000000001000000000000000000000000000011000000000100000010000001000000000101000000000000000000000000000010000001000100000

>  <MACCS166> (1c5cB1)
000000000000000000000000010000000000001100001001011010100111100100100000100100001000000100010000101001001101010100001000000110000110101100111101110111100101011110111000

>  <OB_MW> (1c5cB1)
344.998

>  <OB_logP> (1c5cB1)
3.5262

>  <OB_PSA> (1c5cB1)
154.6

>  <OB_MR> (1c5cB1)
77.9783

>  <OB_ATOMIC_CHARGES> (1c5cB1)
0.0967977608 -0.0426197758 -0.0425778597 -0.2729711132 -0.1396677992 -0.1396677992 -0.1396259235 -0.1396259235 -0.1778085793 0.0014439082 0.0014865984 0.0180311313 0.0209793874 0.0027787432 0.2460979105 0.0929397727 0.021064041 0.022277125 0.1362683438 0.1514633259 0.1408426361 0.1420940892

>  <MCT_HBD> (1c5cB1)
3

>  <MCT_HBA> (1c5cB1)
8

>  <ENSEMBLE_TOTAL> (1c5cB1)
50

>  <ENSEMBLE_COORDS> (1c5cB1)
-2.3543 -1.7100 4.6800 3.3057 2.8830 -0.5590 -3.5963 -1.3380 0.9080 -0.1083 -1.1570 4.0870 4.1077 1.8970 -2.6580 4.1297 0.5370 -0.6120 -3.6033 -0.1380 -1.2250 -2.4923 -2.3970 -0.9800 -1.7173 -0.6910 2.4860 0.1097 0.2720 -3.3710 -0.7473 -0.1250 -2.3560 0.4927 0.2740 1.7530 1.3947 0.8100 -3.0660 1.3397 0.6670 0.7320 -1.2883 -1.1670 3.7560 -0.8073 -0.2700 1.4310 0.9517 0.5450 -0.6440 -0.3223 0.0120 -0.9760 1.7907 0.9370 -1.7450 -1.1883 -0.3900 0.1020 3.4287 1.6220 -1.3490 -2.8263 -1.0730 -0.3940
-2.5515 -0.7293 4.6195 3.2020 2.8846 -0.6502 -2.9644 -2.3565 0.6795 -0.2906 -1.3745 4.2159 4.0789 1.8715 -2.7472 4.2250 0.6111 -0.5758 -3.7622 -0.1566 -0.1813 -2.7179 -1.8542 -1.7210 -1.6579 -0.7155 2.4327 0.1204 0.4478 -3.2919 -0.7471 -0.0018 -2.3720 0.4132 0.1585 1.7260 1.4462 0.8967 -2.9267 1.3169 0.5729 0.6906 -1.3554 -0.9769 3.7565 -0.7691 -0.4103 1.4326 0.9644 0.4898 -0.6034 -0.3798 -0.0611 -0.9570 1.8798 0.9374 -1.6510 -1.1887 -0.5552 0.0245 3.5052 1.5041 -1.4653 -2.7673 -1.1827 -0.4349
-2.3830 -1.6956 4.4720 3.3010 2.6143 -0.2352 -3.7714 -0.0688 0.3627 -0.0507 -1.5006 4.0281 3.8468 2.3727 -2.6442 4.3078 0.4819 -1.0424 -3.0956 -1.1595 -1.7547 -2.9191 -2.4126 0.4064 -1.6152 -0.7004 2.4714 0.1627 0.3460 -3.3015 -0.7190 -0.0694 -2.3800 0.3864 0.2721 1.7328 1.4502 0.8841 -2.9245 1.2866 0.6638 0.6908 -1.1997 -1.3045 3.6475 -0.7915 -0.3062 1.4470 0.9255 0.5790 -0.5994 -0.4110 0.0024 -0.9534 1.8448 1.0204 -1.6426 -1.2364 -0.4299 0.0413 3.4722 1.5820 -1.4863 -2.7915 -1.1712 -0.3359
-2.3098 -1.5824 4.5690 3.4710 2.3408 -0.1383 -3.3654 -1.6898 1.0283 -1.4587 0.5402 3.8829 3.7776 2.5059 -2.5956 4.3354 0.3652 -1.3908 -3.4939 -0.1009 -0.8614 -2.5242 -2.4052 -1.1907 -1.2157 -1.3216 2.4889 -0.0315 0.6524 -3.1836 -0.8200 0.0899 -2.2548 0.7504 -0.3756 1.6844 1.3044 1.1086 -2.8681 1.5359 0.2271 0.6472 -1.6211 -0.6477 3.6264 -0.5211 -0.7469 1.4594 1.0304 0.4023 -0.5848 -0.3590 -0.0710 -0.8724 1.8388 1.0222 -1.6329 -1.1168 -0.6324 0.1201 3.4913 1.5342 -1.5560 -2.6982 -1.2152 -0.3772
-2.0585 -1.2550 4.7436 3.4110 3.0294 -2.1699 -3.7626 -0.6376 0.8503 -0.1719 -2.2528 3.6677 4.3578 0.7194 -2.0788 3.7379 1.9332 0.0337 -3.3809 -0.4410 -1.5759 -2.6951 -2.5366 -0.3591 -1.6157 -0.8860 2.4494 0.1378 0.5160 -3.2416 -0.7380 0.0378 -2.3436 0.3778 0.1517 1.7773 1.4316 1.0285 -2.8437 1.2671 0.6203 0.7578 -1.1622 -1.5353 3.5802 -0.8154 -0.3772 1.4600 0.9118 0.5970 -0.5369 -0.4343 0.0599 -0.9134 1.8353 1.0837 -1.5573 -1.2823 -0.3794 0.0617 3.4728 1.6157 -1.3575 -2.8238 -1.0915 -0.4040
-0.5487 0.1635 4.3745 3.3549 2.2155 0.0588 -3.3731 -1.9105 0.8054 -1.8492 -1.8199 4.5267 3.7060 2.6775 -2.3429 4.3594 0.4444 -1.3609 -3.6786 -0.1251 -0.8905 -2.4925 -2.2732 -1.4745 -1.6407 -0.8220 2.4495 0.1540 0.3074 -3.3028 -0.7280 -0.1276 -2.3884 0.4145 0.0650 1.7072 1.4452 0.8508 -2.9268 1.2908 0.5225 0.6785 -1.3788 -0.9465 3.8001 -0.8005 -0.4375 1.4321 0.9269 0.4748 -0.6100 -0.4129 -0.0831 -0.9572 1.8322 0.9773 -1.6399 -1.2560 -0.5227 0.0300 3.4505 1.5733 -1.4359 -2.7754 -1.2039 -0.5330
-2.2323 -1.7573 4.5021 3.3971 2.5829 -0.2446 -3.5611 -0.1048 0.4062 -1.1542 0.2939 3.9249 3.8795 2.3183 -2.6719 4.2488 0.3953 -1.0912 -3.0228 -1.2721 -1.7282 -2.9535 -2.5235 0.4337 -1.2491 -1.4516 2.3743 -0.1300 0.9974 -3.1101 -0.9018 0.3540 -2.2214 0.7760 -0.5745 1.5981 1.2347 1.3640 -2.8015 1.5510 0.0919 0.5901 -1.4899 -0.8360 3.5876 -0.5033 -0.9078 1.3632 1.0186 0.3961 -0.6064 -0.3856 -0.0210 -0.9087 1.8086 1.1058 -1.6094 -1.0947 -0.7025 0.0315 3.4769 1.5518 -1.5069 -2.7129 -1.3004 -0.3114
-2.2898 -1.7500 4.5479 3.4541 3.0120 -2.0412 -2.9778 -2.4497 0.5199 -0.8892 0.1484 4.1953 4.3377 0.6951 -2.3204 3.9062 1.6338 -0.0277 -3.7347 -0.1142 0.0934 -2.8775 -1.5666 -1.7783 -1.4701 -1.2285 2.3960 0.0091 0.8330 -3.1597 -0.8316 0.2767 -2.2742 0.6267 -0.4498 1.6729 1.3641 1.1901 -2.8004 1.4614 0.1637 0.6805 -1.4672 -0.8202 3.7153 -0.6531 -0.7552 1.4029 1.0036 0.4020 -0.5600 -0.3940 -0.0136 -0.9094 1.8688 1.0273 -1.5593 -1.1721 -0.6233 0.0311 3.5314 1.5031 -1.4236 -2.8059 -1.1141 -0.4010
-2.5363 -1.4977 4.4441 3.1818 2.8901 -0.7361 -2.3991 -2.5388 -0.6765 -0.1833 -1.2540 4.1411 4.0814 1.7581 -2.7617 4.2136 0.6326 -0.5152 -3.7109 -1.0657 0.8354 -3.3494 -0.3985 -1.5449 -1.6684 -0.4330 2.5264 0.2460 0.0324 -3.2661 -0.6365 -0.3421 -2.3266 0.3284 0.4937 1.7480 1.5124 0.6428 -2.9162 1.2394 0.8254 0.6941 -1.3115 -1.0717 3.6987 -0.8309 -0.1315 1.4884 0.9346 0.5514 -0.5845 -0.3862 -0.0694 -0.9105 1.8827 0.8774 -1.6420 -1.2626 -0.3586 0.0962 3.4991 1.4648 -1.4652 -2.8442 -1.0074 -0.3271
0.0706 -1.7095 3.8442 3.3194 2.5800 -0.2217 -3.7690 -0.0183 0.3653 -2.1812 -1.4639 4.5583 3.8867 2.3168 -2.6235 4.3080 0.4309 -1.0077 -3.1239 -1.1261 -1.7554 -2.9689 -2.3798 0.4073 -1.6612 -0.6962 2.4534 0.1689 0.3460 -3.3005 -0.7224 -0.0632 -2.3843 0.3395 0.3116 1.7339 1.4664 0.8582 -2.9184 1.2566 0.6836 0.6975 -1.3561 -1.2808 3.6643 -0.8157 -0.3101 1.4444 0.9195 0.5687 -0.5974 -0.4162 -0.0052 -0.9572 1.8540 0.9961 -1.6342 -1.2465 -0.4343 0.0344 3.4887 1.5381 -1.4650 -2.8171 -1.1427 -0.3377
-2.1021 -1.2163 4.7250 3.9594 1.5891 -0.1294 -3.6471 -0.6565 1.0285 -1.5059 -2.5213 2.8191 3.2172 3.1478 -1.9239 4.4037 0.9996 -2.4958 -3.2363 -0.6451 -1.3984 -2.4261 -2.5729 0.0043 -1.5751 -0.1922 2.6605 0.3515 -0.1992 -3.1410 -0.5309 -0.4826 -2.1734 0.3827 0.7375 1.8119 1.5787 0.5042 -2.8546 1.2707 1.0521 0.7247 -1.6713 -1.4093 3.3068 -0.7585 0.0611 1.5937 0.9997 0.6551 -0.5315 -0.2928 -0.0589 -0.7939 1.9463 0.9087 -1.6182 -1.1701 -0.2902 0.2258 3.4627 1.7394 -1.6732 -2.6564 -1.1502 -0.1670
-2.4754 -0.9145 4.6400 3.8857 2.1222 -2.8338 -2.9979 -2.3535 0.6191 -0.2441 -1.6099 4.1613 4.3169 0.5223 -0.9753 3.3754 2.8095 -0.4974 -3.7636 -0.0913 -0.0973 -2.7894 -1.7192 -1.7536 -1.6265 -0.8395 2.4358 0.0807 0.5987 -3.2514 -0.7744 0.1009 -2.3444 0.4495 0.0315 1.7403 1.4040 1.0496 -2.8787 1.3398 0.4955 0.7146 -1.3055 -1.1619 3.7417 -0.7501 -0.4943 1.4375 0.9589 0.4996 -0.5741 -0.3937 -0.0239 -0.9370 1.8496 1.0253 -1.6081 -1.1956 -0.5555 0.0308 3.4529 1.6301 -1.3398 -2.7972 -1.1218 -0.4304
0.0177 -2.3860 3.1127 3.0436 3.0697 -2.1588 -3.7668 -0.0758 0.9212 -1.9270 -1.9773 4.4245 4.4229 0.9897 -2.2380 3.7334 1.9805 -0.0350 -3.3504 -0.1824 -1.5080 -3.0071 -2.2292 -0.0793 -1.6104 -0.6652 2.5625 0.3106 -0.0731 -3.1707 -0.6219 -0.3496 -2.2458 0.3285 0.4415 1.8456 1.5715 0.5424 -2.8153 1.2455 0.7821 0.7948 -1.2593 -1.6681 3.4397 -0.8446 -0.1443 1.5542 0.9515 0.5350 -0.4936 -0.3846 -0.0451 -0.8355 1.9088 0.8580 -1.5465 -1.2865 -0.2771 0.1586 3.4341 1.6678 -1.4202 -2.9095 -0.7935 -0.2671
-2.3784 -1.8407 4.3973 3.1818 2.9134 -0.6341 -3.2736 -0.4134 -1.6314 -0.0371 -1.5820 4.0271 4.0065 1.9390 -2.7705 4.2146 0.6458 -0.6233 -2.6806 -2.4917 -0.3869 -3.7962 -0.5563 0.7704 -1.5743 -0.6580 2.5230 0.1548 0.2473 -3.2733 -0.6932 -0.2062 -2.3359 0.3998 0.3470 1.7580 1.4290 0.8401 -2.9208 1.2704 0.7607 0.6990 -1.1796 -1.3708 3.6371 -0.7722 -0.2515 1.4924 0.9238 0.5813 -0.5858 -0.4106 -0.0156 -0.9150 1.8425 0.9789 -1.6456 -1.2542 -0.3538 0.0998 3.4682 1.5479 -1.4806 -2.8414 -1.0615 -0.2010
-2.1971 -1.6072 4.6111 3.9319 1.8084 -3.0069 -3.5515 -1.0570 1.1833 -0.9831 -2.6680 2.8482 4.3204 0.8202 -0.7567 3.2764 3.1019 -0.9839 -3.4368 -0.1546 -1.1097 -2.4550 -2.4167 -0.5807 -1.4913 -0.3935 2.7075 0.1853 0.1327 -3.1564 -0.6718 -0.2114 -2.1835 0.4579 0.5508 1.8610 1.4611 0.7438 -2.8590 1.3278 0.9118 0.7748 -1.4702 -1.6396 3.3041 -0.7231 -0.0476 1.6283 0.9731 0.6670 -0.4983 -0.3547 0.0353 -0.7733 1.8716 1.0082 -1.6033 -1.1945 -0.2859 0.2575 3.4373 1.7383 -1.4534 -2.7137 -1.0369 -0.2106
-2.3761 -0.9184 4.6480 4.3125 0.4646 -1.3040 -3.7563 -0.4396 0.6584 -0.1317 -1.5336 4.1246 3.4161 2.4552 -0.1012 3.7667 2.5332 -2.5858 -3.2471 -0.8099 -1.7289 -2.7552 -2.6119 -0.0471 -1.5989 -0.9367 2.4077 0.1701 0.3877 -3.3045 -0.7057 -0.0782 -2.4003 0.4230 0.0598 1.7135 1.4453 0.9472 -2.9098 1.3199 0.4976 0.6867 -1.2285 -1.1616 3.7209 -0.7881 -0.4402 1.4158 0.9465 0.4921 -0.6029 -0.3995 -0.0492 -0.9718 1.8411 1.0300 -1.6236 -1.2418 -0.4801 0.0099 3.3779 1.7988 -1.3955 -2.7902 -1.2068 -0.4101
-0.6216 -0.1124 4.1323 3.6758 2.6396 -2.6012 -3.6169 -0.7014 0.9415 -2.0798 -1.9675 4.4076 4.2930 0.5460 -1.3959 3.4920 2.5643 -0.1220 -3.3894 -0.5285 -1.5123 -2.7282 -2.6493 -0.3358 -1.3203 -1.5380 2.2825 -0.0607 0.9984 -3.1480 -0.8715 0.3552 -2.2906 0.7110 -0.6317 1.5471 1.2712 1.4229 -2.7669 1.4916 0.0976 0.5942 -1.4117 -1.2849 3.6331 -0.5943 -0.8648 1.3363 0.9664 0.4601 -0.5868 -0.4337 0.0557 -0.9281 1.7848 1.1967 -1.5427 -1.1931 -0.5630 0.0197 3.4243 1.7039 -1.2895 -2.7888 -1.1988 -0.3746
-2.4959 -1.5002 4.4704 3.3172 2.6834 -0.3867 -2.9437 -1.3084 -1.8298 -0.6580 0.0032 4.2671 3.9375 2.1264 -2.7314 4.2606 0.4336 -0.8973 -2.9610 -2.5180 0.3168 -3.6975 -0.1133 0.2164 -1.3486 -1.2675 2.4211 -0.0140 0.7188 -3.2241 -0.8314 0.1647 -2.3152 0.6728 -0.3595 1.6546 1.3250 1.1404 -2.8774 1.4624 0.2701 0.6391 -1.3972 -0.8118 3.7268 -0.5949 -0.7282 1.4111 0.9886 0.4185 -0.6087 -0.3965 -0.0509 -0.9380 1.8363 1.0092 -1.6376 -1.1427 -0.6390 0.0373 3.4873 1.5031 -1.5004 -2.8063 -1.1746 -0.2141
-2.0997 0.7855 3.2737 3.5005 2.4512 -0.2551 -2.4465 -2.7878 0.6943 -2.7859 -1.3437 4.0963 3.6624 2.6081 -2.7264 4.3967 0.5114 -1.5405 -3.5413 -0.5461 0.6484 -2.8057 -1.6681 -1.4747 -1.0219 -1.2872 2.6209 -0.0755 0.6369 -3.1171 -0.8178 0.0761 -2.1514 0.8901 -0.2872 1.7471 1.2689 1.1006 -2.8615 1.6397 0.2869 0.6619 -2.0177 -0.7089 3.3768 -0.3639 -0.7298 1.5566 1.1018 0.4110 -0.5645 -0.2835 -0.1107 -0.8048 1.8582 1.0378 -1.6493 -0.9644 -0.7134 0.2106 3.4841 1.6327 -1.6654 -2.5786 -1.3553 -0.0761
-0.2292 -2.0611 3.5464 4.0790 0.7827 -0.2816 -3.7981 -0.1880 0.5848 -2.0765 -1.0691 4.6785 3.2174 3.0025 -1.0256 4.2459 1.4032 -2.6804 -3.1942 -0.9289 -1.6896 -2.7955 -2.4516 0.2691 -1.7129 -0.4619 2.4872 0.2574 0.0581 -3.2834 -0.6471 -0.2713 -2.3494 0.3129 0.4791 1.7511 1.5307 0.6372 -2.9226 1.2430 0.7915 0.7011 -1.4135 -1.1453 3.6463 -0.8557 -0.1231 1.4717 0.9451 0.5461 -0.5876 -0.3847 -0.0477 -0.9294 1.9019 0.8621 -1.6459 -1.2614 -0.3450 0.0692 3.4332 1.6493 -1.5030 -2.7978 -1.1189 -0.3068
0.0567 -1.4815 4.2394 4.0138 2.0294 -2.6488 -3.4880 -1.6821 0.8369 -2.1987 -0.7884 4.5651 4.1713 0.4170 -0.7577 3.2702 2.7378 -0.3783 -3.6425 0.0816 -0.8955 -2.6437 -2.1705 -1.4376 -1.4741 -1.1700 2.4005 0.0226 0.6717 -3.2659 -0.8349 0.1593 -2.3640 0.5081 -0.1528 1.6767 1.3612 1.1125 -2.9032 1.3518 0.3731 0.6563 -1.3063 -1.0666 3.7683 -0.7440 -0.5590 1.4121 0.9210 0.4673 -0.6103 -0.4547 0.0161 -0.9510 1.8056 1.0106 -1.6377 -1.2630 -0.5012 0.0288 3.4005 1.5592 -1.2162 -2.8328 -1.0635 -0.5178
-1.4759 0.2480 3.7678 3.7732 2.3638 -2.7848 -3.5152 -0.9815 1.0867 -1.6415 -2.0049 4.5325 4.2623 0.5864 -1.1130 3.3736 2.8224 -0.3686 -3.4097 -0.3914 -1.3034 -2.6436 -2.6628 -0.5341 -1.1712 -1.6609 2.3042 -0.1481 1.0460 -3.0890 -0.9079 0.3601 -2.2196 0.7973 -0.6305 1.5736 1.1983 1.4675 -2.7593 1.5421 0.1109 0.5969 -1.4289 -1.2425 3.5929 -0.4869 -0.9551 1.3509 0.9954 0.4371 -0.5870 -0.4121 0.0288 -0.8841 1.7760 1.1739 -1.5791 -1.1369 -0.6200 0.0711 3.3992 1.7336 -1.3281 -2.7394 -1.2291 -0.3264
0.1201 -2.0463 3.6938 3.9181 2.0791 -2.8093 -3.7666 -0.2344 0.7554 -2.0700 -1.6752 4.5441 4.2852 0.5024 -0.9180 3.3931 2.8194 -0.4936 -3.3256 -0.6028 -1.6453 -2.8841 -2.4437 0.0082 -1.6155 -0.8917 2.4355 0.1191 0.5182 -3.2587 -0.7560 0.0535 -2.3525 0.3558 0.2246 1.7712 1.4301 0.9973 -2.8748 1.2521 0.6741 0.7429 -1.2801 -1.5142 3.6151 -0.8047 -0.3761 1.4578 0.9091 0.5988 -0.5549 -0.4374 0.0591 -0.9260 1.8368 1.0514 -1.5920 -1.2722 -0.3821 0.0560 3.4523 1.6232 -1.3138 -2.8597 -1.0347 -0.3411
-0.9106 -1.7678 4.6353 4.2462 0.3570 -0.9622 -3.6677 -0.5260 0.7928 -2.0263 0.2537 4.0077 3.3855 2.5909 -0.2590 3.9760 2.1530 -2.6647 -3.2841 -0.6614 -1.6423 -2.7605 -2.6368 -0.1798 -1.4195 -1.2821 2.3682 0.0650 0.6200 -3.2598 -0.7715 0.0820 -2.3590 0.6003 -0.3152 1.6684 1.3812 1.0866 -2.8846 1.4395 0.2529 0.6523 -1.5164 -0.8062 3.6617 -0.6637 -0.6810 1.3930 0.9973 0.3985 -0.6088 -0.3860 -0.0528 -0.9559 1.8582 0.9952 -1.6271 -1.1916 -0.5565 0.0204 3.4245 1.6969 -1.4016 -2.7759 -1.2010 -0.3951
-0.0487 -1.7752 3.8512 3.2160 2.9667 -1.0919 -2.5840 -2.0322 -1.5287 -2.1391 -1.0390 4.7197 4.2323 1.3371 -2.6810 4.0923 0.7969 -0.2322 -3.4302 -1.7916 0.7765 -3.6329 0.1262 -0.8348 -1.6898 -0.5858 2.5096 0.1617 0.2526 -3.2623 -0.7399 -0.1094 -2.3356 0.3081 0.4066 1.7674 1.4822 0.7205 -2.8974 1.2216 0.7653 0.7214 -1.3816 -1.0941 3.7527 -0.8356 -0.2443 1.4934 0.9191 0.5332 -0.5667 -0.4174 -0.0424 -0.9100 1.8807 0.8554 -1.6166 -1.2506 -0.4482 0.0914 3.5145 1.3969 -1.4210 -2.8788 -0.9953 -0.3051
-0.4705 -1.7752 3.7341 4.3268 0.5535 -0.8046 -3.0890 -1.9441 1.0967 -2.7548 -1.2873 4.2020 3.3472 2.8450 -0.7267 4.0190 1.8236 -2.9227 -3.6882 -0.0139 -0.3558 -2.6014 -2.0771 -1.3080 -1.7128 -0.0442 2.5673 0.3503 -0.2181 -3.1905 -0.5520 -0.4791 -2.2348 0.3309 0.7211 1.7590 1.5920 0.4517 -2.8879 1.2715 0.9549 0.6984 -1.7562 -1.0282 3.5334 -0.8123 0.0488 1.5387 0.9981 0.5702 -0.5600 -0.2945 -0.1379 -0.8363 1.9328 0.8582 -1.6486 -1.1630 -0.4099 0.1829 3.4538 1.6846 -1.5920 -2.7278 -1.0966 -0.2446
-0.5738 0.0439 4.3310 3.2768 2.5044 -0.0659 -3.2885 -0.3723 -1.6371 -1.7733 -1.9985 4.5272 3.7556 2.5745 -2.5005 4.2769 0.5025 -1.1651 -2.6544 -2.6019 -0.7188 -3.7478 -0.8604 0.7322 -1.5081 -1.1267 2.4127 0.0586 0.5465 -3.2732 -0.7550 -0.0377 -2.3791 0.5567 -0.2446 1.6745 1.3387 1.1001 -2.8867 1.3700 0.3632 0.6647 -1.3125 -1.1393 3.7776 -0.7036 -0.6311 1.4165 0.9350 0.4717 -0.6010 -0.4172 -0.0618 -0.9571 1.7896 1.0812 -1.6162 -1.2257 -0.5395 0.0316 3.4193 1.6402 -1.4421 -2.8172 -1.2143 -0.3252
-2.4262 -0.7345 4.5714 3.6897 2.5938 -2.5216 -2.5197 -2.2308 -1.4529 -0.1245 -1.3196 4.3502 4.2926 0.4384 -1.4142 3.4107 2.3724 -0.0643 -3.5162 -1.6931 0.7513 -3.5154 0.0315 -1.0684 -1.4648 -1.1510 2.4435 0.0076 0.6467 -3.2413 -0.8260 0.0962 -2.3404 0.5514 -0.2058 1.6975 1.3338 1.1153 -2.8782 1.3793 0.3347 0.6681 -1.1937 -1.0788 3.7987 -0.6953 -0.6289 1.4340 0.9330 0.4460 -0.5924 -0.4315 -0.0432 -0.9335 1.7812 1.0574 -1.6098 -1.2184 -0.5700 0.0529 3.4048 1.5784 -1.2804 -2.8524 -1.0552 -0.3703
-2.3170 -1.5107 4.5464 3.8761 1.9153 -2.9612 -2.7868 -2.6339 0.5435 -1.6778 0.5658 3.5540 4.2980 0.3633 -1.0671 3.6047 2.7434 -0.6256 -3.6394 -0.3070 0.2790 -2.7911 -1.6132 -1.7027 -1.2146 -1.4419 2.4545 -0.1893 1.2178 -2.9229 -0.9421 0.5195 -2.0583 0.8375 -0.6775 1.6332 1.2065 1.4972 -2.6622 1.6180 -0.0189 0.6197 -1.7074 -0.6576 3.4799 -0.4577 -0.9622 1.4185 1.0620 0.3511 -0.5479 -0.3701 0.0068 -0.8131 1.8426 1.0755 -1.5514 -1.0683 -0.7217 0.1036 3.5108 1.5312 -1.4179 -2.6945 -1.2424 -0.3021
-2.4648 -1.7051 4.4196 4.0280 1.6655 -2.8649 -2.4589 -2.4814 -0.7412 -0.1231 -1.4016 4.0869 4.2607 0.6890 -0.5875 3.2710 2.9850 -0.8917 -3.7121 -1.0705 0.8751 -3.4004 -0.2889 -1.4765 -1.6477 -0.5421 2.5360 0.2188 0.1483 -3.2449 -0.6726 -0.2341 -2.3160 0.3428 0.4178 1.7755 1.4908 0.7418 -2.8845 1.2560 0.7651 0.7301 -1.2620 -1.2270 3.6716 -0.8274 -0.1797 1.5025 0.9335 0.5464 -0.5540 -0.4025 -0.0362 -0.8915 1.8758 0.9110 -1.6057 -1.2723 -0.3552 0.1109 3.4395 1.6168 -1.3452 -2.8731 -0.9649 -0.3048
-2.4533 -1.1703 4.5656 4.2151 0.2597 -0.9322 -2.7203 -2.6180 0.7599 -1.9221 0.8544 3.4157 3.5518 2.6307 -0.5321 4.0283 1.8099 -2.8645 -3.6199 -0.3812 0.1260 -2.6325 -1.9250 -1.6042 -1.2295 -1.1988 2.5436 -0.0892 0.7859 -3.1099 -0.8522 0.1866 -2.1829 0.7825 -0.3377 1.7281 1.2718 1.1860 -2.8264 1.5672 0.2428 0.6725 -1.8489 -0.3686 3.4574 -0.4721 -0.7561 1.4928 1.0612 0.3889 -0.5649 -0.3274 -0.0905 -0.8452 1.8592 0.9964 -1.6276 -1.0327 -0.7249 0.1341 3.4835 1.5864 -1.5375 -2.6204 -1.3566 -0.2681
-0.7700 0.3808 4.1417 3.2293 2.7332 -0.3663 -2.5623 -1.9780 -1.7206 -2.2699 -1.4151 4.5474 3.9162 2.1625 -2.6894 4.2316 0.4967 -0.8294 -3.2028 -2.2301 0.6476 -3.6076 -0.0459 -0.5301 -1.3312 -1.2957 2.4540 -0.0212 0.6447 -3.2112 -0.8337 0.0947 -2.2945 0.6690 -0.3556 1.6792 1.3083 1.1032 -2.8696 1.4493 0.2847 0.6631 -1.5334 -0.8475 3.7416 -0.6011 -0.7251 1.4450 0.9768 0.4142 -0.5872 -0.3934 -0.0886 -0.9101 1.8119 1.0120 -1.6233 -1.1400 -0.6766 0.0699 3.4506 1.5443 -1.4619 -2.7764 -1.2126 -0.2959
-2.1465 -1.5150 4.6726 3.3860 2.8815 -0.8304 -2.4843 -1.8824 -1.5496 -2.5644 0.2745 3.1546 3.9658 1.7887 -2.9938 4.3050 0.5698 -0.8214 -2.9786 -2.3125 0.8241 -3.4910 -0.0575 -0.1651 -1.0111 -1.3823 2.6006 -0.1682 0.8872 -3.0125 -0.9079 0.3275 -2.0443 0.9248 -0.4063 1.7416 1.2285 1.1990 -2.8079 1.6617 0.2123 0.6706 -1.9370 -0.7480 3.4065 -0.3493 -0.7916 1.5581 1.1005 0.4058 -0.5367 -0.3157 -0.0188 -0.7537 1.8652 0.9925 -1.6364 -0.9822 -0.6796 0.2340 3.5270 1.4761 -1.6455 -2.6283 -1.2208 -0.0655
-0.4112 -2.1435 3.3718 4.2824 0.9522 -2.6869 -2.9010 -2.2131 0.8637 -2.3074 -1.2919 4.5353 4.1227 1.1785 -0.2199 3.3358 3.0466 -1.7147 -3.8078 -0.0167 0.1067 -2.8474 -1.6578 -1.5379 -1.7281 -0.2699 2.5553 0.2736 0.0513 -3.2181 -0.6325 -0.2637 -2.2807 0.2853 0.6422 1.7902 1.5517 0.6280 -2.8677 1.2274 0.9182 0.7402 -1.5649 -1.2012 3.5598 -0.8567 -0.0158 1.5291 0.9598 0.5869 -0.5353 -0.3562 -0.0488 -0.8624 1.9265 0.8707 -1.5952 -1.2179 -0.3671 0.1437 3.4765 1.6288 -1.4390 -2.8106 -1.0139 -0.2380
-0.7365 0.1808 4.1311 3.9560 1.8405 -2.8490 -2.9075 -2.5323 0.5743 -2.4908 -1.4096 4.3478 4.2705 0.6757 -0.6854 3.3171 3.0080 -0.7440 -3.6987 -0.2120 0.1427 -2.8501 -1.6675 -1.7312 -1.2970 -1.4239 2.3896 -0.0474 0.8924 -3.1378 -0.8605 0.2908 -2.2522 0.7131 -0.4985 1.6375 1.3116 1.2733 -2.7989 1.5015 0.1592 0.6426 -1.6054 -0.9367 3.6380 -0.5678 -0.8232 1.3982 1.0042 0.3918 -0.5812 -0.3890 -0.0405 -0.9065 1.8429 1.0360 -1.5836 -1.1332 -0.6809 0.0422 3.4312 1.6788 -1.3151 -2.7640 -1.2022 -0.3590
-2.3154 -1.7663 4.5433 3.8189 2.2407 -2.7864 -2.5371 -2.2446 -1.3242 -0.8026 0.0507 4.2346 4.3044 0.4089 -1.1720 3.4451 2.6321 -0.3572 -3.5242 -1.5768 0.8507 -3.4836 0.0532 -1.0492 -1.3277 -1.3517 2.4355 -0.0350 0.7480 -3.1728 -0.8491 0.1813 -2.2672 0.6916 -0.4669 1.6611 1.3025 1.1872 -2.8298 1.4915 0.1613 0.6521 -1.3994 -0.8995 3.7410 -0.6008 -0.7584 1.4376 0.9924 0.3928 -0.5737 -0.4114 -0.0190 -0.8828 1.8198 1.0304 -1.5967 -1.1889 -0.5614 0.1014 3.4508 1.5696 -1.3468 -2.8419 -1.0116 -0.2985
-2.0108 0.8250 3.3190 4.2649 0.6151 -0.8707 -2.8293 -2.4257 1.0631 -2.7691 -1.2823 4.1336 3.3530 2.9348 -0.7743 3.9300 1.8755 -2.9839 -3.5079 -0.3106 -0.0583 -2.4774 -2.2042 -1.3652 -1.0001 -1.2791 2.6618 -0.1147 0.6289 -3.0843 -0.8306 0.0365 -2.1181 0.8938 -0.2763 1.7676 1.2211 1.1193 -2.8373 1.6350 0.3082 0.6824 -1.9814 -0.6708 3.4147 -0.3490 -0.7519 1.5796 1.1015 0.3906 -0.5488 -0.2750 -0.1533 -0.7766 1.8445 1.0120 -1.6460 -0.9540 -0.7670 0.2395 3.4016 1.7682 -1.6355 -2.5462 -1.3930 -0.1623
-0.0511 -1.8612 3.7071 4.0600 0.7976 -0.2915 -3.4777 0.1140 -1.0656 -2.2083 -1.3747 4.5842 3.1777 3.0157 -1.0126 4.2147 1.4421 -2.6839 -2.5988 -2.2225 -1.2023 -3.5921 -1.3551 0.9271 -1.6493 -0.4132 2.5724 0.1914 0.0673 -3.2494 -0.7017 -0.2652 -2.3031 0.3447 0.4936 1.7678 1.4780 0.6424 -2.9160 1.2514 0.8047 0.7027 -1.4006 -1.2054 3.6724 -0.8113 -0.1458 1.5236 0.9331 0.5395 -0.5750 -0.3967 -0.0729 -0.8832 1.8713 0.8659 -1.6460 -1.2424 -0.4027 0.1384 3.4005 1.6682 -1.5039 -2.7928 -1.1321 -0.2636
-2.4421 -1.3410 4.5980 4.2168 0.4556 -0.8773 -3.2606 -0.3631 -1.6553 -0.1801 -0.6480 4.3620 3.2470 2.6875 -0.3226 3.9484 2.1529 -2.6787 -2.7116 -2.5754 -0.6502 -3.7477 -0.7413 0.7286 -1.4755 -1.0839 2.4480 0.0794 0.4707 -3.2945 -0.7475 -0.0670 -2.3833 0.5335 -0.1200 1.6883 1.3803 0.9873 -2.9268 1.3756 0.3955 0.6544 -1.2283 -0.9673 3.8097 -0.7072 -0.5658 1.4309 0.9632 0.4172 -0.6229 -0.3990 -0.0974 -0.9633 1.8327 0.9698 -1.6583 -1.2166 -0.5370 0.0374 3.3651 1.7397 -1.4157 -2.8258 -1.1693 -0.3085
-2.4892 -2.1349 4.1240 3.7403 2.1181 -3.0208 -3.3195 0.0608 -1.1835 -0.3941 -2.6077 3.0809 4.3433 0.7486 -1.0299 3.2881 3.0186 -0.7484 -2.6230 -2.2685 -0.6021 -3.6635 -0.7599 1.1178 -1.4164 -0.5352 2.7477 0.1638 0.0752 -3.1235 -0.6825 -0.2710 -2.1409 0.4848 0.5180 1.8945 1.4234 0.7284 -2.8431 1.3218 0.9162 0.7918 -1.3099 -1.8132 3.2625 -0.6956 -0.0823 1.6733 0.9518 0.6764 -0.4793 -0.3708 0.0261 -0.7424 1.8265 1.0412 -1.5954 -1.1959 -0.2674 0.3027 3.3995 1.7614 -1.4653 -2.7829 -0.9489 -0.0206
-2.6287 -1.1584 4.5162 4.3074 0.3408 -1.1629 -2.4358 -2.5756 -0.9863 -0.7864 0.3277 4.2486 3.3845 2.4528 -0.2110 3.8579 2.2715 -2.6726 -3.5774 -1.3825 0.8713 -3.3627 -0.2877 -1.3657 -1.3856 -1.1179 2.5019 0.0838 0.3992 -3.2591 -0.7389 -0.1206 -2.3342 0.6244 -0.2298 1.7098 1.3923 0.9120 -2.9099 1.4531 0.2922 0.6665 -1.4991 -0.5408 3.7568 -0.6401 -0.6119 1.4672 1.0146 0.3384 -0.6013 -0.3580 -0.1595 -0.9198 1.8602 0.9074 -1.6464 -1.1690 -0.6002 0.0885 3.4005 1.6703 -1.4333 -2.7969 -1.1276 -0.3243
-0.6368 0.1830 4.1530 4.1053 0.6263 -0.5523 -3.5283 0.0702 -0.6913 -2.1778 -1.5810 4.5320 3.1868 2.9392 -0.5477 4.0635 1.9055 -2.6741 -2.6720 -2.1068 -1.5656 -3.3719 -1.8844 0.8273 -1.2755 -1.4069 2.4158 -0.0567 0.7028 -3.2139 -0.8553 0.1088 -2.3106 0.6861 -0.3880 1.6392 1.2690 1.1852 -2.8734 1.4515 0.2753 0.6297 -1.4478 -1.0047 3.7261 -0.5763 -0.7860 1.4106 0.9732 0.4135 -0.6165 -0.4027 -0.0858 -0.9316 1.8027 1.0355 -1.6445 -1.1488 -0.6718 0.0525 3.3510 1.7870 -1.4153 -2.7392 -1.3170 -0.3494
0.0966 -2.2357 3.6181 3.7092 2.4717 -2.6719 -3.3465 -0.1550 -1.5767 -1.9001 -1.4826 4.6778 4.3193 0.4288 -1.3770 3.4926 2.4948 -0.1983 -2.8214 -2.3700 -0.5549 -3.8236 -0.5108 0.8141 -1.5931 -0.9394 2.4641 0.0998 0.4735 -3.2362 -0.7663 0.0004 -2.3252 0.3916 0.1516 1.7907 1.3993 0.9889 -2.8579 1.2746 0.6010 0.7527 -1.2108 -1.5019 3.6604 -0.8081 -0.3739 1.4922 0.9015 0.5716 -0.5383 -0.4555 0.0497 -0.8981 1.8085 1.0593 -1.5760 -1.2952 -0.3479 0.0972 3.4438 1.5853 -1.3286 -2.9162 -0.9592 -0.2283
-0.0073 -1.6714 3.8476 4.0413 1.6065 -2.8613 -2.4984 -2.4550 -0.7512 -2.2659 -1.4414 4.5503 4.2802 0.6455 -0.5786 3.3141 2.9497 -0.8928 -3.7388 -1.0366 0.8684 -3.4121 -0.2484 -1.4794 -1.7025 -0.5218 2.5264 0.2383 0.1335 -3.2344 -0.6670 -0.2393 -2.3154 0.2894 0.4654 1.7864 1.5095 0.7130 -2.8606 1.2228 0.7888 0.7488 -1.4248 -1.2136 3.6825 -0.8634 -0.1639 1.5070 0.9272 0.5430 -0.5378 -0.4081 -0.0383 -0.8882 1.8883 0.8876 -1.5806 -1.2893 -0.3433 0.1088 3.4624 1.5755 -1.3362 -2.8959 -0.9355 -0.3096
-0.3126 -1.6951 3.7881 4.2105 0.5210 -0.5263 -2.4071 -2.3807 -1.1162 -2.2430 -0.6632 4.7272 3.2194 2.8021 -0.7141 4.1272 1.6365 -2.7500 -3.5624 -1.4645 0.8695 -3.4763 -0.1241 -1.2500 -1.7744 -0.2302 2.5158 0.3160 -0.1970 -3.2364 -0.6157 -0.4470 -2.3026 0.2709 0.6110 1.7411 1.5859 0.4099 -2.8983 1.2291 0.8243 0.6947 -1.5250 -0.8120 3.7404 -0.8858 -0.0269 1.4937 0.9545 0.4769 -0.5741 -0.3637 -0.1508 -0.8904 1.9169 0.7519 -1.6375 -1.2516 -0.4001 0.1163 3.4257 1.5867 -1.4805 -2.8385 -1.0287 -0.3104
-1.9216 -2.0779 4.4867 4.3373 0.6608 -2.2967 -2.6759 -1.8762 -1.7112 -0.6007 -0.0936 4.4456 3.8750 1.4754 0.0026 3.4206 2.9618 -1.9702 -3.3643 -1.9981 0.6540 -3.6674 0.1431 -0.6294 -1.6330 -0.8302 2.4836 0.1355 0.4056 -3.2581 -0.7612 -0.0090 -2.3477 0.4394 -0.0022 1.7458 1.4550 0.8665 -2.8772 1.3200 0.4520 0.7186 -1.2933 -0.8939 3.8246 -0.7815 -0.4842 1.4616 0.9502 0.4259 -0.5701 -0.4123 -0.0786 -0.9288 1.8730 0.9002 -1.5947 -1.2350 -0.5484 0.0552 3.4243 1.6420 -1.3675 -2.8841 -1.0408 -0.3267
-1.8095 0.3768 3.5050 3.4370 2.8559 -2.6579 -2.6099 -1.7583 -1.5401 -2.6131 -1.7973 4.0608 4.2848 0.5960 -2.0329 3.7352 2.2960 -0.2570 -2.9851 -2.3589 0.8204 -3.4729 -0.0197 0.0361 -0.8865 -1.6500 2.5457 -0.2647 1.0830 -2.9007 -0.9666 0.4259 -1.9652 1.0196 -0.6521 1.6596 1.1260 1.4242 -2.7011 1.7161 0.0560 0.6187 -1.8242 -1.1195 3.4055 -0.2681 -1.0047 1.5080 1.0918 0.3962 -0.5229 -0.3348 -0.0131 -0.7208 1.7929 1.1522 -1.5617 -0.9682 -0.7470 0.2390 3.4471 1.6712 -1.5351 -2.6470 -1.2128 -0.0035
-0.3198 -0.2323 4.3218 3.9548 1.9937 -2.7350 -2.5762 -2.0365 -1.6312 -2.4307 -1.3141 4.4146 4.1842 0.5184 -0.7456 3.2693 2.8513 -0.4948 -3.3823 -1.9527 0.7064 -3.5547 0.0879 -0.7469 -1.2788 -1.4275 2.4209 -0.0650 0.8047 -3.1805 -0.8740 0.2097 -2.2851 0.6813 -0.4433 1.6392 1.2795 1.2364 -2.8392 1.4525 0.2179 0.6397 -1.4584 -1.0098 3.7257 -0.5992 -0.7809 1.4205 0.9615 0.4016 -0.5947 -0.4232 -0.0466 -0.9119 1.7914 1.0369 -1.6112 -1.1738 -0.6418 0.0647 3.3874 1.6206 -1.2552 -2.8257 -1.0935 -0.3220
-1.1751 0.2894 4.0672 4.2054 0.6737 -0.7631 -3.2583 -0.3608 -1.2814 -2.7720 -1.4787 3.9936 3.2853 2.9908 -0.6762 3.9554 1.9577 -2.8728 -2.5322 -2.6521 -0.6175 -3.5055 -1.0537 1.0633 -1.0227 -1.5388 2.4903 -0.0867 0.6915 -3.1396 -0.8131 0.0461 -2.2155 0.8722 -0.4631 1.6716 1.2190 1.2297 -2.8331 1.5966 0.2193 0.6357 -1.7541 -0.9800 3.5188 -0.4037 -0.8409 1.4862 1.0563 0.4032 -0.5814 -0.3338 -0.0941 -0.8437 1.8167 1.0780 -1.6334 -1.0541 -0.6465 0.1743 3.3714 1.8348 -1.5493 -2.6667 -1.3055 -0.0939
-2.8643 -1.5593 4.0344 3.8618 1.1589 -3.0984 -2.5138 -1.8172 -1.5683 -1.8046 0.5118 3.4808 4.2690 0.7455 -0.6866 3.5819 3.0326 -1.4746 -2.9290 -2.4402 0.7854 -3.5045 -0.1260 -0.0151 -0.9764 -1.4906 2.6061 -0.3172 1.3308 -2.7326 -1.0032 0.5789 -1.8580 1.0229 -0.7551 1.6545 1.0945 1.5991 -2.5558 1.7376 -0.0758 0.6058 -1.8349 -0.7081 3.3578 -0.2844 -1.0292 1.5185 1.1065 0.3473 -0.5047 -0.3426 0.0166 -0.6802 1.8175 1.1170 -1.5225 -0.9764 -0.7451 0.2547 3.4838 1.5873 -1.5694 -2.6241 -1.2791 -0.0318

>  <OB_ATOM_TYPES> (1c5cB1)
C.3 O.3 O.3 O.2 O.2 O.2 O.2 O.2 N.am C.ar C.ar C.ar C.ar C.ar C.2 C.ar C.ar C.ar C.ar C.ar S.3 S.3

>  <ENSEMBLE_RMSD> (1c5cB1)
0.000 0.474 0.551 0.658 0.689 0.796 0.803 0.835 0.862 0.897 0.928 0.998 1.023 1.029 1.088 1.100 1.138 1.142 1.157 1.159 1.159 1.162 1.202 1.217 1.236 1.242 1.244 1.263 1.264 1.288 1.291 1.312 1.318 1.342 1.344 1.346 1.378 1.409 1.411 1.413 1.420 1.445 1.460 1.472 1.479 1.506 1.570 1.578 1.601 1.684

$$$$
