
 OpenBabel03071213D

 18 19  0  0  0  0  0  0  0  0999 V2000
   45.8860   17.4310    5.9040 O   0  0  0  0  0
   43.0980   16.2930    1.8560 O   0  0  0  0  0
   43.8630   17.1050    5.1330 O   0  0  0  0  0
   42.9630   15.4370   -0.2200 O   0  0  0  0  0
   46.0400   14.4980    5.2770 O   0  0  0  0  0
   45.8610   10.5730    2.1030 N   0  0  0  0  0
   44.8250   15.1820    3.4280 N   0  0  0  0  0
   45.4200    9.8590    1.0550 C   0  0  0  0  0
   44.5060   10.6040    0.3000 C   0  0  0  0  0
   45.4060   12.8930    2.9080 C   0  0  0  0  0
   43.7760   13.0250    0.6270 C   0  0  0  0  0
   45.1660   16.7690    5.2480 C   0  0  0  0  0
   43.3010   15.4190    1.0660 C   0  0  0  0  0
   45.4730   15.3880    4.6380 C   0  0  0  0  0
   45.2730   11.8160    2.0900 C   0  0  0  0  0
   44.7280   14.0900    2.6170 C   0  0  0  0  0
   44.4320   11.8720    0.9520 C   0  0  0  0  0
   43.9300   14.1620    1.4510 C   0  0  0  0  0
  1 12  1  0  0  0
  2 13  1  0  0  0
  3 12  2  0  0  0
  4 13  2  0  0  0
  5 14  2  0  0  0
  6  8  1  0  0  0
  6 15  1  0  0  0
  7 14  1  0  0  0
  7 16  1  0  0  0
  8  9  2  0  0  0
  9 17  1  0  0  0
 10 15  1  0  0  0
 10 16  2  0  0  0
 11 17  1  0  0  0
 11 18  2  0  0  0
 12 14  1  0  0  0
 13 18  1  0  0  0
 15 17  2  0  0  0
 16 18  1  0  0  0
M  END
>  <MOLID> (1c83A1)
1c83A1

>  <SMILES_CANONICAL> (1c83A1)
O=C(C(=O)O)Nc1cc2[nH]ccc2cc1C(=O)O	

>  <FINGERPRINT> (1c83A1)
0001000000000001010000000000001000000000000000000000100000000000000000000000000000010001000000000000000000000001000001100000000000000000000001000000000010000000000000000000000101000000010000000000000000000000100000000000000000000000000110000000000100000000000001001000000000000001000000000000000000000000000010000100000000000000001010000000000010000100010000000000000011110000000000000000010000000000100010000000000000000000010100000000000000000000000000000000001000000000010000000000000000001100000000000000110000000000000001000000000000000000000000100000000000000000000001000000100000100000000000000000000000000000000000000000000000000000010000000001000000000000000000000000100000000110100011100110100000100010100000000110000000000000100000000100000000000000000101000000000000000000000000000000000010000000000000000000000010000000000010000000000010000000110100000000000000000000000100001000000000000000010000001000000000000000000000000000011000000000000000011100000000000100010100100000000000000000000000000000001001000000

>  <MACCS166> (1c83A1)
000000000000000000000000010000000000000000001000010011000000000010000001000100010010000000010011101000001000010000001001101010000010101110110101010001100101111010111000

>  <OB_MW> (1c83A1)
248.043

>  <OB_logP> (1c83A1)
0.9622

>  <OB_PSA> (1c83A1)
119.49

>  <OB_MR> (1c83A1)
61.3425

>  <OB_ATOMIC_CHARGES> (1c83A1)
-0.2353464868 -0.2405045689 -0.2353464868 -0.2405045689 -0.2607138355 -0.2437934958 -0.1695337669 0.0988753578 0.0221290736 0.0359091107 0.0094397719 0.4422272747 0.3890139356 0.3491207917 0.0826557558 0.0817226247 0.0194887144 0.0951607989

>  <MCT_HBD> (1c83A1)
4

>  <MCT_HBA> (1c83A1)
7

>  <ENSEMBLE_TOTAL> (1c83A1)
50

>  <ENSEMBLE_COORDS> (1c83A1)
1.2223 3.4079 3.3244 -1.5657 2.2699 -0.7236 -0.8007 3.0819 2.5534 -1.7007 1.4139 -2.7996 1.3763 0.4749 2.6974 1.1973 -3.4501 -0.4766 0.1613 1.1589 0.8484 0.7563 -4.1641 -1.5246 -0.1577 -3.4191 -2.2796 0.7423 -1.1301 0.3284 -0.8877 -0.9981 -1.9526 0.5023 2.7459 2.6684 -1.3627 1.3959 -1.5136 0.8093 1.3649 2.0584 0.6093 -2.2071 -0.4896 0.0643 0.0669 0.0374 -0.2317 -2.1511 -1.6276 -0.7337 0.1389 -1.1286
1.1125 3.0980 3.5761 -2.0140 1.9117 -0.3001 -0.0529 3.6366 1.6828 -1.5388 1.6967 -2.5213 0.3046 0.5431 2.9886 1.4362 -3.4375 -0.7188 0.6528 1.1571 0.7476 0.7630 -4.1947 -1.6990 -0.2657 -3.4884 -2.2351 1.0755 -1.0868 0.1577 -1.0446 -1.0026 -1.7184 0.4849 2.8353 2.4225 -1.4589 1.2994 -1.3692 0.4954 1.3597 2.1028 0.7628 -2.2228 -0.6737 0.3099 0.0226 0.0597 -0.2542 -2.1968 -1.5579 -0.7685 0.0693 -0.9442
1.2523 3.1742 3.4811 -2.7090 1.3493 -1.6023 -0.4829 3.4078 2.0174 -0.6796 2.3921 -1.5547 1.6957 0.7605 2.5670 1.2037 -3.4854 -0.4698 -0.0573 1.0024 1.0365 0.7922 -4.1812 -1.6241 -0.0718 -3.4279 -2.3553 0.6418 -1.1948 0.4244 -0.9343 -0.9465 -1.9213 0.4567 2.7880 2.4771 -1.3653 1.3852 -1.4665 0.8204 1.3970 2.0078 0.5413 -2.2672 -0.5278 -0.0165 -0.0470 0.1710 -0.2271 -2.1725 -1.6303 -0.8601 0.0660 -1.0305
1.5026 3.4714 2.4306 -2.6307 1.2916 -1.9364 -0.6151 3.0012 3.1970 -0.7111 2.4633 -1.5614 1.2481 0.5457 2.8438 1.2208 -3.4565 -0.4371 0.1670 1.1750 0.8496 0.7601 -4.1931 -1.5473 -0.1098 -3.4584 -2.2886 0.7291 -1.1008 0.3613 -0.9133 -0.9437 -1.9404 0.4183 2.7104 2.6297 -1.3339 1.4123 -1.5734 0.6729 1.3321 2.1118 0.5809 -2.2252 -0.5293 0.0300 0.0285 0.1107 -0.2183 -2.1680 -1.6137 -0.7975 0.1143 -1.1070
-0.3520 2.9564 3.4594 -2.1425 1.9292 -0.4970 1.2683 3.6371 1.9901 -1.4672 1.6996 -2.6647 1.0825 0.4951 2.8942 1.3499 -3.4105 -0.5719 0.3261 1.2053 0.7901 0.7801 -4.1717 -1.6134 -0.1949 -3.4716 -2.2485 0.8953 -1.0544 0.2575 -1.0321 -0.9924 -1.8171 0.6013 2.7798 2.5351 -1.4936 1.3085 -1.5082 0.6609 1.3329 2.1155 0.6698 -2.1983 -0.5945 0.1422 0.0536 0.0720 -0.2554 -2.1801 -1.5749 -0.8386 0.0817 -1.0237
0.1174 3.6289 2.0441 -0.4073 2.4559 -1.6505 0.1801 2.5446 4.0619 -2.4106 1.4700 -2.1324 1.6482 0.7387 2.4874 1.0001 -3.5186 -0.2862 -0.1458 1.0820 1.0013 0.7137 -4.2031 -1.4857 0.0436 -3.4029 -2.3554 0.4909 -1.1549 0.4768 -0.6538 -0.8516 -2.0947 0.2579 2.5685 2.8493 -1.2645 1.4126 -1.7167 0.6846 1.3615 2.0673 0.4671 -2.2471 -0.4627 -0.0121 0.0455 0.1085 -0.1013 -2.1182 -1.6785 -0.6083 0.1881 -1.2339
-0.3080 1.5443 3.7410 -0.8498 2.5038 -1.4242 0.4013 3.6030 3.0089 -2.3936 1.2654 -2.5384 2.1191 1.5177 1.7182 1.1061 -3.4125 -0.1685 -0.0555 1.2287 0.8769 0.7211 -4.1985 -1.2737 -0.0423 -3.4812 -2.1384 0.6176 -1.0049 0.4470 -0.7948 -0.9376 -1.9983 0.3066 2.3971 2.9102 -1.4319 1.3385 -1.7875 0.9067 1.6376 1.7673 0.5381 -2.1662 -0.3995 0.0206 0.1409 0.0478 -0.1511 -2.1485 -1.5566 -0.7103 0.1726 -1.2323
0.5808 1.7139 3.9406 -2.7169 1.3070 -1.7440 -0.2061 3.4831 2.7009 -0.6978 2.3378 -2.0357 2.1944 1.6496 1.5480 1.1420 -3.4077 -0.2074 -0.0057 1.2497 0.8291 0.6866 -4.2113 -1.2718 -0.1655 -3.5203 -2.0724 0.6557 -1.0062 0.4339 -0.9426 -0.9853 -1.9131 0.3906 2.4339 2.8273 -1.3667 1.3697 -1.7108 0.9826 1.7031 1.6625 0.5207 -2.1788 -0.3933 0.0217 0.1243 0.0538 -0.2631 -2.1868 -1.4909 -0.8106 0.1242 -1.1568
2.1567 2.0593 2.0425 -1.2963 2.4629 -1.2028 0.5893 3.4936 2.9180 -2.5754 1.1241 -2.5191 -0.3251 0.6658 3.3321 1.4059 -3.2085 -0.2609 -0.5018 1.1323 1.0502 1.2724 -3.9049 -1.4798 0.5032 -3.2077 -2.3553 0.4886 -0.9780 0.5281 -0.6579 -0.8406 -2.0531 0.9352 2.4277 2.4520 -1.6840 1.2645 -1.6946 -0.0063 1.2709 2.3219 0.6742 -2.0391 -0.4310 -0.2596 0.0960 0.1828 0.1208 -1.9855 -1.6583 -0.8401 0.1673 -1.1726
2.1456 2.0332 2.7386 -1.0322 2.4002 -1.7568 0.4660 3.5957 2.5934 -2.9044 1.1006 -1.9055 -0.3489 0.5791 3.1698 1.4037 -3.2022 -0.2447 -0.3442 1.2275 0.9193 1.1860 -3.9671 -1.4076 0.4305 -3.2817 -2.3040 0.5983 -0.9078 0.4469 -0.6665 -0.8665 -2.0860 0.8920 2.4609 2.5341 -1.7162 1.2377 -1.6658 0.0088 1.2885 2.2442 0.7406 -2.0033 -0.4742 -0.1838 0.1384 0.1025 0.1401 -1.9943 -1.6812 -0.8155 0.1610 -1.2229
-0.8547 2.9550 2.3603 -0.4387 2.5277 -1.7170 0.3939 2.2076 4.1274 -2.3577 1.4684 -2.3309 2.0674 1.1550 2.2485 1.0241 -3.4420 -0.2086 0.3121 1.3447 0.7075 0.4938 -4.2250 -1.2545 -0.2871 -3.4786 -2.0769 0.7584 -0.9744 0.3584 -0.8108 -0.8810 -1.9923 0.1230 2.2472 2.9427 -1.2512 1.4502 -1.8142 0.9393 1.4944 1.9237 0.5221 -2.1617 -0.4284 0.2000 0.1954 -0.0329 -0.2529 -2.1274 -1.5309 -0.5810 0.2446 -1.2819
0.8873 3.5745 1.8303 -1.1938 1.7430 -2.8196 0.1642 2.9124 3.8918 -1.9846 2.0764 -0.7080 0.4099 0.3715 2.9849 1.2584 -3.4537 -0.4369 0.2801 1.2046 0.8010 0.8280 -4.1879 -1.5605 -0.0111 -3.4465 -2.3303 0.7786 -1.0878 0.3354 -0.8138 -0.9232 -1.9998 0.4356 2.6885 2.7262 -1.3860 1.3954 -1.5271 0.3711 1.2856 2.1735 0.6354 -2.2157 -0.5527 0.1239 0.0602 0.0512 -0.1248 -2.1504 -1.6643 -0.6584 0.1533 -1.1949
2.0052 2.1710 3.3496 -3.0422 0.9933 -1.3357 0.9258 3.7069 2.0302 -1.2758 2.2138 -2.1212 -0.3593 0.8127 3.0264 1.4395 -3.2289 -0.3297 -0.0014 1.3160 0.7665 1.1571 -3.9920 -1.4799 0.2656 -3.3518 -2.2803 0.6779 -0.9311 0.4068 -0.8893 -0.9810 -1.9553 1.0781 2.5876 2.4743 -1.7325 1.2162 -1.5890 0.1675 1.4452 2.1253 0.6689 -2.0807 -0.4614 -0.1017 0.1270 0.0930 -0.0512 -2.1011 -1.6012 -0.9323 0.0769 -1.1182
1.6422 2.5981 3.0078 -0.6068 2.3928 -1.0677 -0.2200 3.8498 2.5341 -2.5561 1.2557 -1.3637 -1.2575 1.2725 2.1162 1.4801 -3.5689 -0.7660 0.7885 0.9341 1.0163 0.8255 -4.2234 -1.8303 -0.1362 -3.4311 -2.3709 1.1573 -1.2659 0.2632 -0.7998 -0.9387 -1.7498 0.4391 2.8308 2.4662 -1.3606 1.2710 -1.1121 -0.1020 1.5711 1.8549 0.8629 -2.3259 -0.6720 0.4659 -0.1054 0.1800 -0.0918 -2.1862 -1.6128 -0.5308 0.0697 -0.8935
1.1820 2.7276 3.5436 -0.1211 2.2830 -1.6357 -1.0357 2.9275 2.9615 -2.2882 1.6136 -1.3555 1.3280 2.4293 0.7784 0.8792 -3.7722 -0.3839 -0.1092 0.6620 1.3822 0.6553 -4.2921 -1.6746 0.0929 -3.3574 -2.4837 0.4626 -1.4818 0.6181 -0.5286 -0.8289 -1.9580 0.1065 2.5715 2.7596 -1.0891 1.3909 -1.3274 0.5272 1.8711 1.5090 0.4247 -2.4600 -0.4406 0.0455 -0.2241 0.3529 -0.0484 -2.1580 -1.6667 -0.4835 0.0982 -0.9790
0.7927 3.7698 2.8463 -1.7999 2.0216 -0.5223 -0.1437 1.8899 3.7529 -0.5736 1.9256 -2.4420 1.0620 2.5699 0.5742 0.8568 -3.7815 -0.3917 -0.0484 0.6648 1.3779 0.5727 -4.3133 -1.6661 -0.0437 -3.3920 -2.4507 0.4721 -1.4815 0.6065 -0.6951 -0.8795 -1.9006 0.3453 2.5063 2.8269 -0.9704 1.4187 -1.4042 0.5284 1.9108 1.4515 0.3814 -2.4758 -0.4328 0.0426 -0.2261 0.3459 -0.1691 -2.1939 -1.6303 -0.6100 0.0662 -0.9412
0.2462 1.6500 3.9851 -0.9511 1.7542 -2.8989 -0.2741 3.4800 2.6962 -2.2523 1.9640 -1.0319 2.1500 1.5385 1.8143 1.1071 -3.4208 -0.1942 0.0526 1.2745 0.7962 0.6849 -4.2074 -1.2849 -0.0995 -3.4880 -2.1284 0.6727 -1.0014 0.4238 -0.8544 -0.9474 -1.9690 0.2342 2.3911 2.8696 -1.4077 1.3712 -1.6844 0.9365 1.6485 1.7732 0.5413 -2.1702 -0.4112 0.0913 0.1491 0.0183 -0.1861 -2.1537 -1.5469 -0.6918 0.1678 -1.2269
0.5774 1.8641 3.7166 -2.1940 1.7356 -0.5087 0.2184 3.8825 2.6973 -0.7141 1.9696 -2.2330 1.0229 2.5366 0.4344 1.0845 -3.7096 -0.4272 -0.0325 0.6770 1.3990 0.7459 -4.2676 -1.6763 0.0131 -3.3956 -2.4152 0.6178 -1.4371 0.5976 -0.7908 -0.9415 -1.8157 0.3738 2.6766 2.6710 -1.1729 1.3334 -1.2977 0.5117 1.9401 1.3706 0.5228 -2.4384 -0.4362 0.0486 -0.2308 0.3782 -0.1393 -2.2061 -1.5875 -0.6934 0.0111 -0.8671
-0.7308 1.8759 3.2674 -2.6743 1.2687 -1.9827 0.9044 3.4874 3.1937 -0.7222 2.4385 -1.8316 2.2123 1.3612 1.8504 1.1643 -3.4014 -0.2551 0.1390 1.2966 0.7552 0.6440 -4.2179 -1.2791 -0.2413 -3.5289 -2.0453 0.7304 -0.9878 0.3743 -0.9821 -0.9790 -1.8873 0.3892 2.4553 2.8143 -1.3581 1.4036 -1.7008 1.0198 1.6015 1.7594 0.5465 -2.1687 -0.4293 0.0622 0.1361 0.0339 -0.2954 -2.1840 -1.4823 -0.8080 0.1430 -1.1551
1.8481 2.7033 2.7060 -2.6399 1.1639 -1.0741 -0.1285 3.8527 2.6224 -0.7103 2.3733 -1.2045 -1.1858 1.3504 2.0997 1.5075 -3.5470 -0.8389 0.8205 0.9505 0.9548 0.7778 -4.2402 -1.8265 -0.2598 -3.4895 -2.2797 1.2055 -1.2486 0.1951 -0.9568 -1.0105 -1.6191 0.5589 2.8774 2.3872 -1.2951 1.3098 -1.0674 -0.0297 1.6205 1.8084 0.8565 -2.3258 -0.6998 0.4597 -0.1212 0.1769 -0.1952 -2.2342 -1.5384 -0.6334 0.0153 -0.8019
1.3206 3.4366 2.1341 -0.4148 2.4279 -1.1495 0.1977 2.5508 3.9328 -2.3723 1.3783 -1.6468 -1.3983 1.7326 1.6972 1.3350 -3.6243 -0.6301 0.7170 0.9295 1.0415 0.7375 -4.2683 -1.7346 -0.1416 -3.4447 -2.3591 1.0397 -1.2898 0.3377 -0.7286 -0.9132 -1.8300 0.4791 2.5957 2.7515 -1.2046 1.3401 -1.2921 -0.1795 1.6922 1.7569 0.7699 -2.3534 -0.6018 0.4027 -0.1043 0.1936 -0.1020 -2.1908 -1.6165 -0.4575 0.1052 -0.9848
2.1654 1.7963 2.6987 -1.1548 1.8597 -2.7058 0.7220 3.5771 2.5148 -2.7761 1.6036 -1.1163 -0.5241 0.7485 3.2113 1.4832 -3.1450 -0.2581 -0.3874 1.2469 0.9277 1.3154 -3.8855 -1.4459 0.4793 -3.2431 -2.3022 0.5597 -0.9035 0.4896 -0.7601 -0.9084 -2.0199 0.9833 2.3923 2.4929 -1.7311 1.2549 -1.6414 -0.0561 1.3426 2.2547 0.7022 -2.0066 -0.4283 -0.2200 0.1426 0.1332 0.0827 -2.0128 -1.6261 -0.8834 0.1405 -1.1789
0.2820 3.0897 3.6561 -1.3964 1.7447 -2.3141 1.1781 3.5946 1.6131 -2.0916 1.8262 -0.1426 -0.6854 0.8751 2.6523 1.4645 -3.5051 -0.8117 0.7965 1.0252 0.8472 0.7836 -4.1950 -1.8344 -0.2178 -3.4352 -2.3496 1.1464 -1.1971 0.1773 -0.9686 -0.9694 -1.6962 0.6020 2.8458 2.3771 -1.4644 1.2892 -1.0413 0.1567 1.4555 1.9866 0.8248 -2.2752 -0.7213 0.4203 -0.0610 0.1077 -0.1799 -2.1760 -1.6148 -0.6508 0.0679 -0.8915
-0.9936 2.6869 2.6041 -1.0008 1.6791 -3.0423 0.8051 2.5495 4.0044 -1.9247 2.2273 -1.0322 2.1254 1.2935 1.9802 1.0166 -3.4438 -0.1717 0.1225 1.2793 0.7785 0.5768 -4.2276 -1.2577 -0.1794 -3.4911 -2.1135 0.6494 -1.0105 0.4133 -0.8363 -0.9112 -1.9951 0.2462 2.3134 2.9506 -1.2853 1.4619 -1.7375 0.9374 1.5472 1.8498 0.4890 -2.1800 -0.4075 0.1227 0.1600 -0.0076 -0.2269 -2.1456 -1.5493 -0.6443 0.2117 -1.2663
0.6670 3.7444 2.9027 -0.2363 2.0021 -2.3078 -0.4012 1.9041 3.7374 -1.8846 2.0066 -0.7274 1.1182 2.4963 0.6727 0.7731 -3.8074 -0.3736 -0.1302 0.6436 1.3779 0.5724 -4.3205 -1.6707 0.0680 -3.3676 -2.4972 0.4220 -1.5021 0.6110 -0.5309 -0.8282 -1.9732 0.1955 2.4897 2.8555 -0.9830 1.4436 -1.3276 0.4776 1.8723 1.5034 0.3700 -2.4797 -0.4459 0.0366 -0.2359 0.3426 -0.0672 -2.1648 -1.6820 -0.4673 0.1035 -0.9978
-0.1589 3.5358 3.1732 -0.5809 2.4009 -1.0060 1.8778 2.8767 2.3660 -2.5449 1.3083 -1.3703 -1.2924 1.5002 2.0636 1.4090 -3.5929 -0.7810 0.7306 0.8390 1.0751 0.7663 -4.2262 -1.8638 -0.1787 -3.4176 -2.4098 1.0819 -1.3149 0.2747 -0.8282 -0.9227 -1.7722 0.6771 2.7394 2.4925 -1.3526 1.2942 -1.1049 -0.0933 1.6024 1.8646 0.8016 -2.3473 -0.6859 0.3768 -0.1634 0.2202 -0.1368 -2.1820 -1.6384 -0.5543 0.0699 -0.8975
1.3485 3.5228 1.9133 -2.5269 1.2981 -1.3235 0.4916 2.6328 3.8488 -0.5305 2.4025 -1.3051 -1.3064 1.6906 1.8047 1.3866 -3.5874 -0.7088 0.7619 0.9499 0.9653 0.7079 -4.2712 -1.7368 -0.2629 -3.4901 -2.2775 1.1007 -1.2653 0.2636 -0.9075 -0.9720 -1.7162 0.6421 2.6491 2.6437 -1.1797 1.3713 -1.2193 -0.0871 1.6960 1.7495 0.7755 -2.3408 -0.6395 0.3992 -0.1139 0.1802 -0.2055 -2.2233 -1.5568 -0.6075 0.0509 -0.8855
0.1758 1.8735 3.7575 -0.5549 1.9376 -2.2490 0.0851 3.8797 2.6583 -2.0868 1.8731 -0.5567 1.1383 2.4685 0.5510 0.9928 -3.7667 -0.4334 -0.0161 0.6264 1.4280 0.7225 -4.2755 -1.7190 0.1002 -3.3444 -2.4867 0.5714 -1.4959 0.6149 -0.6251 -0.8667 -1.8812 0.1968 2.6695 2.6793 -1.1797 1.3623 -1.1942 0.5132 1.8954 1.4307 0.5067 -2.4648 -0.4509 0.0712 -0.2606 0.3921 -0.0425 -2.1641 -1.6452 -0.5689 0.0528 -0.8956
1.8132 2.6308 3.1749 -2.7926 1.6464 -0.8326 2.0555 1.7644 1.0746 -1.3792 1.9278 -2.6048 -0.5260 1.5421 3.3821 1.4421 -3.0757 -0.2456 -0.6538 1.1794 1.0982 1.2801 -3.7935 -1.4487 0.4093 -3.1620 -2.2775 0.4117 -0.9109 0.5922 -0.8828 -0.8719 -1.9315 1.4092 1.9650 2.0826 -1.7285 1.3245 -1.6030 -0.0170 1.4973 2.2722 0.6177 -1.9632 -0.3746 -0.3958 0.1231 0.2617 -0.0164 -1.9640 -1.5647 -1.0466 0.1401 -1.0556
-0.8900 3.3890 2.2068 -1.9655 1.7879 -0.5267 0.1846 2.0683 3.7474 -0.2289 2.1846 -1.9627 1.4015 2.7396 0.7482 0.8398 -3.8340 -0.5775 0.7154 0.5905 1.3770 0.1692 -4.3495 -1.7057 -0.5524 -3.3819 -2.3283 0.9256 -1.5109 0.4232 -0.7992 -0.8103 -1.7039 -0.0028 2.4717 2.6169 -0.8167 1.4737 -1.1643 0.7671 1.9565 1.4340 0.4941 -2.4894 -0.5402 0.5029 -0.2316 0.3057 -0.3363 -2.1672 -1.5512 -0.4085 0.1129 -0.7987
2.0294 1.6368 3.1128 -1.3576 2.5014 -1.1355 1.6616 2.3868 0.9784 -2.7573 1.1406 -2.3075 -0.6027 1.7614 3.4098 1.4280 -3.0963 -0.2005 -0.8425 1.0129 1.2301 1.3960 -3.7367 -1.4559 0.6232 -3.0447 -2.3330 0.3243 -0.9800 0.6537 -0.6611 -0.7462 -1.9918 1.2873 1.8989 2.0250 -1.7984 1.2974 -1.5671 -0.1432 1.5181 2.3025 0.6294 -1.9686 -0.3498 -0.4275 0.0889 0.3061 0.1370 -1.8814 -1.6012 -0.9257 0.2106 -1.0761
-1.0585 2.7671 2.8305 -0.4639 1.9262 -2.4093 1.1096 3.0827 3.4983 -1.9962 2.0083 -0.7191 1.6314 2.0843 0.9361 0.8822 -3.7367 -0.3707 -0.1913 0.6824 1.3852 0.6728 -4.2644 -1.6605 0.1035 -3.3404 -2.4771 0.4047 -1.4596 0.6269 -0.6038 -0.8344 -1.9483 0.2687 2.5927 2.7695 -1.1134 1.4285 -1.3307 0.6469 1.7551 1.5800 0.4123 -2.4310 -0.4364 -0.0628 -0.2206 0.3648 -0.0651 -2.1422 -1.6636 -0.5771 0.1021 -0.9756
-0.2595 2.6018 3.4020 -2.5859 1.6280 -1.8090 1.0615 0.7278 3.5792 -0.5008 2.2143 -2.5495 2.0107 2.4297 1.2794 0.9788 -3.2506 0.0579 -0.0506 1.5067 0.6726 0.5376 -4.1292 -0.9533 -0.2581 -3.4829 -1.8436 0.5559 -0.7911 0.4694 -0.9648 -0.9219 -1.9254 0.5846 1.6592 2.9644 -1.2558 1.4526 -1.9663 0.9331 1.9194 1.5349 0.4087 -2.0243 -0.2583 -0.0398 0.3205 -0.0159 -0.3367 -2.1023 -1.3800 -0.8186 0.2424 -1.2584
0.0636 0.3045 2.8258 -2.5551 1.5704 -1.3292 -0.8562 2.4055 2.8545 -0.6015 2.4519 -2.1166 1.9405 2.7120 2.0495 1.2004 -3.3260 -0.2418 1.0229 1.5479 0.2628 0.3094 -4.1795 -0.9234 -0.6920 -3.4709 -1.5062 1.2400 -0.8098 0.0664 -1.0986 -0.8462 -1.5394 -0.0565 1.5848 2.4502 -1.2247 1.5544 -1.5717 1.0948 1.9686 1.5705 0.6920 -2.0467 -0.4339 0.5723 0.3370 -0.1897 -0.4313 -2.0739 -1.1795 -0.6199 0.3162 -1.0483
1.6422 0.6717 3.1982 -2.1310 2.2243 -1.2067 -0.6508 0.7791 3.0763 -1.1953 1.6436 -3.2069 1.1839 3.2035 1.9993 1.1841 -3.0572 0.0973 0.3603 1.7644 0.3732 0.5922 -4.0154 -0.7483 -0.3184 -3.4384 -1.5750 0.8865 -0.5558 0.2821 -1.0336 -0.8843 -1.7688 0.4637 1.1114 2.7308 -1.3672 1.4534 -2.0131 0.7194 2.1253 1.6543 0.5881 -1.8540 -0.2555 0.1834 0.5119 -0.1538 -0.3207 -2.0203 -1.2362 -0.7867 0.3369 -1.2473
1.6597 2.9602 1.9458 -1.0801 1.7705 -2.9127 1.3898 1.7530 3.8736 -2.4822 1.8613 -1.1107 -1.1652 1.3143 2.8120 1.3577 -3.2031 -0.1828 -0.0773 1.3861 0.7466 1.1237 -3.9889 -1.3293 0.3278 -3.3320 -2.2128 0.6131 -0.8681 0.4563 -0.7499 -0.9092 -2.0325 1.0560 2.0722 2.7499 -1.5698 1.3356 -1.7283 -0.1911 1.5279 2.1076 0.6595 -2.0227 -0.4057 -0.1108 0.2022 0.0620 0.0278 -2.0443 -1.5967 -0.7888 0.1849 -1.2424
-1.1020 1.9742 2.4490 -1.5924 2.4275 -0.7386 0.3661 0.4158 3.2880 -1.1082 1.8295 -2.8883 1.7555 2.8479 2.1004 1.0668 -3.3390 -0.2110 1.0542 1.5260 0.3176 0.2014 -4.1588 -0.9627 -0.7522 -3.4158 -1.5823 1.1528 -0.8330 0.1436 -1.1132 -0.7812 -1.5620 0.0636 1.3200 2.5369 -1.1142 1.5946 -1.6903 1.0565 1.9650 1.6233 0.5940 -2.0460 -0.3987 0.5550 0.3411 -0.1537 -0.4888 -2.0320 -1.2021 -0.5950 0.3641 -1.0692
1.8739 1.5669 1.2143 -1.2274 2.5338 -1.2960 1.7166 2.2201 3.3876 -2.5614 1.1847 -2.5528 -0.9338 1.8291 3.2593 1.3562 -3.1130 -0.0897 -0.7854 1.1689 1.0569 1.3972 -3.7712 -1.3362 0.7000 -3.0794 -2.2739 0.2349 -0.9610 0.6574 -0.5508 -0.7511 -2.0579 1.2199 1.8091 2.3544 -1.6547 1.3320 -1.7476 -0.2653 1.5439 2.2717 0.5877 -1.9749 -0.3074 -0.4526 0.1249 0.2349 0.1884 -1.8967 -1.5926 -0.8432 0.2337 -1.1824
1.3505 0.5680 3.3211 -0.5037 2.3960 -2.4064 -0.8983 0.9265 3.0075 -2.5971 1.5562 -2.0407 1.3279 3.0884 2.0379 1.1171 -3.0894 0.1485 0.3554 1.7506 0.4062 0.5609 -4.0301 -0.7407 -0.2570 -3.4240 -1.6403 0.8745 -0.5779 0.3226 -0.8768 -0.8490 -1.8842 0.2712 1.1326 2.7585 -1.3828 1.4778 -1.9436 0.7288 2.0813 1.6891 0.5987 -1.8657 -0.2553 0.2165 0.5041 -0.1482 -0.2294 -2.0041 -1.3097 -0.6564 0.3586 -1.3224
2.1704 1.4730 1.7708 -2.8625 1.2389 -0.8114 0.9501 3.2201 0.9116 -1.0177 2.4362 -1.4443 -0.3857 2.0699 3.3384 1.2917 -3.3838 -0.4237 -0.7672 0.5544 1.6222 1.2618 -3.8038 -1.7688 0.5911 -2.9108 -2.5417 0.3312 -1.3489 0.7436 -0.5763 -0.6275 -1.8488 1.0574 2.1761 1.5219 -1.5445 1.4045 -1.0634 -0.0911 1.5671 2.2623 0.6026 -2.1772 -0.4068 -0.3456 -0.1948 0.5578 0.1641 -1.8480 -1.6393 -0.8297 0.1548 -0.7804
2.0522 1.7905 1.3172 -2.5946 1.8634 -1.1023 1.7247 1.3541 3.5376 -1.2270 1.8035 -2.9277 -0.8677 2.1821 3.0507 1.3653 -3.0240 -0.0347 -0.6113 1.3768 0.9106 1.2631 -3.8031 -1.2032 0.4657 -3.1991 -2.1217 0.3623 -0.7927 0.6137 -0.7623 -0.8475 -1.9894 1.3151 1.6029 2.4192 -1.5810 1.3646 -1.8450 -0.1652 1.7288 2.1568 0.5825 -1.9031 -0.2780 -0.3807 0.2480 0.1753 0.0310 -1.9495 -1.5074 -0.9721 0.2042 -1.1717
-0.1370 0.6161 3.0272 -0.2835 2.3713 -1.8978 -1.4020 2.2872 2.0935 -2.1653 1.8782 -0.6958 1.3941 3.1246 1.8934 1.1547 -3.5280 -0.4969 1.3791 1.2390 0.5428 0.2117 -4.2294 -1.2752 -0.7371 -3.3893 -1.7633 1.3532 -1.0757 0.1243 -0.9731 -0.7647 -1.4709 -0.3746 1.6506 2.2111 -1.0626 1.5816 -1.1248 0.8961 2.0660 1.5330 0.7337 -2.2035 -0.5284 0.7814 0.1410 -0.0124 -0.3825 -2.0646 -1.2726 -0.3864 0.2997 -0.8873
2.0885 0.7806 2.4086 -2.0832 2.2728 -1.2096 0.1337 0.6071 3.6051 -1.3799 1.5072 -3.2385 -0.0241 3.2327 2.2222 1.2868 -2.9923 0.0949 0.1306 1.7505 0.4684 0.8415 -3.9444 -0.8393 -0.0565 -3.4007 -1.7016 0.7366 -0.5497 0.3901 -0.9306 -0.8883 -1.8461 0.8251 1.1034 2.7374 -1.4374 1.4096 -2.0227 0.2778 2.1326 1.7810 0.6094 -1.8289 -0.2388 0.0140 0.4969 -0.0639 -0.1973 -2.0053 -1.3018 -0.8350 0.3160 -1.2454
-0.7632 2.4386 3.0036 -2.1788 1.8609 -0.7474 0.2326 0.3866 2.8541 -0.3859 2.3607 -2.0758 0.9712 3.3634 1.2906 1.0662 -3.5283 -0.4263 1.3623 1.2569 0.4172 0.0951 -4.2598 -1.1378 -0.8799 -3.4406 -1.6112 1.2984 -1.0609 0.0725 -1.0956 -0.7949 -1.4254 0.0707 1.5289 2.4753 -0.9917 1.5993 -1.3389 0.8253 2.1492 1.3193 0.6339 -2.2096 -0.4834 0.7412 0.1553 -0.1061 -0.5160 -2.0958 -1.1789 -0.4856 0.2900 -0.9014
1.7309 3.0401 2.3418 -2.9105 1.1978 -1.9132 2.1937 0.9130 1.6370 -1.0864 2.5283 -1.5543 -0.4781 1.8111 3.3700 1.2984 -3.1288 -0.1554 -0.7696 1.1226 1.1760 1.2875 -3.7621 -1.4140 0.5294 -3.0661 -2.3012 0.1799 -1.0203 0.6921 -0.7435 -0.7550 -1.9762 1.4262 1.7793 1.9993 -1.6307 1.4356 -1.5478 -0.0371 1.5375 2.2627 0.4955 -2.0054 -0.3111 -0.5080 0.0819 0.3222 0.0269 -1.9074 -1.5718 -1.0042 0.1979 -1.0560
1.7315 0.6521 3.0097 -2.8709 1.5641 -0.9639 2.2114 2.3787 1.5687 -1.4903 1.8454 -2.7609 -0.5376 2.5038 2.9952 1.4230 -2.9951 -0.0550 -0.6902 1.3150 1.0096 1.3744 -3.7295 -1.2572 0.5443 -3.1377 -2.1547 0.3225 -0.8248 0.6506 -0.8186 -0.8700 -1.9395 1.4433 1.6391 2.1489 -1.7819 1.2856 -1.7160 -0.0396 1.8241 2.1074 0.5721 -1.9153 -0.2579 -0.4014 0.2324 0.2207 0.0279 -1.9468 -1.4909 -1.0198 0.1787 -1.1146
1.1236 3.1524 0.9676 -2.4063 1.7872 -0.2997 2.1074 1.3099 1.9230 -0.8007 2.2608 -1.8495 -0.8333 2.4958 2.7900 1.1161 -3.5168 -0.4540 -0.7167 0.4283 1.7435 1.1801 -3.8371 -1.8251 0.5959 -2.8689 -2.5774 0.1886 -1.5046 0.7746 -0.5457 -0.5964 -1.8019 1.1452 1.9977 1.6492 -1.2996 1.5100 -1.0256 -0.2467 1.6707 2.1040 0.4599 -2.2930 -0.4006 -0.3900 -0.2921 0.6265 0.1210 -1.8642 -1.6323 -0.7990 0.1601 -0.7121
2.3531 1.4018 2.2782 -2.7552 1.3431 -2.1690 0.6175 0.3422 3.3636 -0.7624 2.4608 -2.1951 0.2402 3.2762 2.0948 1.1497 -3.0297 0.1917 -0.6280 1.4683 0.8846 1.0185 -3.8931 -0.9129 0.2873 -3.3106 -1.9008 0.2858 -0.7095 0.6173 -0.7833 -0.8571 -1.9860 1.0722 1.1751 2.6062 -1.4284 1.4692 -1.9426 0.2030 2.0893 1.8009 0.4544 -1.8864 -0.1743 -0.3395 0.3700 0.1040 -0.0796 -1.9858 -1.4064 -0.9052 0.2765 -1.2541
2.1104 1.7415 1.6484 -0.8681 1.9684 -2.8750 1.2443 0.5088 3.3860 -2.5648 1.9150 -1.3496 -0.5935 2.7969 2.7555 1.1754 -3.0856 0.1047 -0.8123 1.2961 0.9958 1.2276 -3.8159 -1.0983 0.6068 -3.1420 -2.1021 0.1621 -0.8447 0.6744 -0.5668 -0.7464 -2.0507 1.1463 1.2887 2.4601 -1.5328 1.4567 -1.8136 -0.1662 1.8846 2.0606 0.4873 -1.9226 -0.2147 -0.3960 0.2792 0.1752 0.1316 -1.8939 -1.5136 -0.7911 0.3151 -1.2430
-1.2031 1.9011 2.5811 -0.7101 1.9485 -2.6960 0.3804 0.3186 3.0957 -1.7790 2.3327 -0.7103 1.2229 3.1809 1.9092 1.0776 -3.4064 -0.2794 1.2242 1.4313 0.3813 0.1575 -4.1815 -1.0130 -0.7802 -3.3946 -1.6020 1.2594 -0.9115 0.1147 -1.0430 -0.7499 -1.5373 -0.0132 1.2912 2.4851 -1.0805 1.6405 -1.4320 0.8607 2.0695 1.5473 0.6557 -2.0932 -0.4478 0.6855 0.2848 -0.1364 -0.4442 -2.0263 -1.2252 -0.4708 0.3645 -1.0349

>  <OB_ATOM_TYPES> (1c83A1)
O.co2 O.co2 O.co2 O.co2 O.2 N.ar N.am C.ar C.ar C.ar C.ar C.2 C.2 C.2 C.ar C.ar C.ar C.ar

>  <ENSEMBLE_RMSD> (1c83A1)
0.000 0.513 0.647 0.692 0.694 0.765 0.849 0.885 0.894 0.897 0.925 0.948 0.949 0.950 0.955 0.980 0.980 1.022 1.035 1.048 1.068 1.101 1.127 1.141 1.153 1.157 1.158 1.185 1.198 1.206 1.234 1.235 1.240 1.262 1.277 1.284 1.311 1.327 1.339 1.349 1.369 1.372 1.376 1.405 1.408 1.411 1.474 1.492 1.554 1.557

$$$$
