
 OpenBabel03071213D

 33 36  0  0  0  0  0  0  0  0999 V2000
    1.2130   -2.7710   46.0310 C   0  0  0  0  0
    0.9260   -2.5520   50.4410 C   0  0  0  0  0
  -12.7670  -11.6390   57.6710 O   0  0  0  0  0
   -3.5980   -2.3600   50.3330 O   0  0  0  0  0
  -10.5500  -12.1320   57.6300 O   0  0  0  0  0
   -8.6420   -8.4040   54.2620 O   0  0  0  0  0
   -3.6760   -2.4570   53.5530 O   0  0  0  0  0
  -10.1390   -9.5150   56.4330 C   0  0  0  0  0
   -0.9850   -0.0280   51.4110 C   0  0  0  0  0
   -1.3710   -3.6540   49.0150 C   0  0  0  0  0
  -11.2550   -9.8270   57.4290 C   0  0  0  0  0
   -9.8920   -8.0080   56.2720 C   0  0  0  0  0
   -0.1300   -0.1970   50.1370 C   0  0  0  0  0
   -0.8830   -3.6480   47.5520 C   0  0  0  0  0
   -2.3730   -0.6800   51.2560 C   0  0  0  0  0
   -2.0800   -3.1440   51.8790 C   0  0  0  0  0
   -7.9810   -6.6680   55.5340 N   0  0  0  0  0
   -3.8000   -4.5980   52.8360 N   0  0  0  0  0
    0.0040   -0.9690   47.3080 O   0  0  0  0  0
   -6.3290   -6.9450   53.8940 C   0  0  0  0  0
   -6.5450   -4.8750   55.1930 C   0  0  0  0  0
   -5.2430   -6.4070   53.1950 C   0  0  0  0  0
   -5.4590   -4.3340   54.4950 C   0  0  0  0  0
   -1.4590   -2.2220   49.5470 C   0  0  0  0  0
    0.6120   -1.6550   48.1780 C   0  0  0  0  0
  -11.4930  -11.3320   57.5900 C   0  0  0  0  0
   -8.7810   -7.7110   55.2640 C   0  0  0  0  0
   -3.2510   -3.3720   52.8410 C   0  0  0  0  0
   -6.9840   -6.1780   54.8960 C   0  0  0  0  0
   -4.7970   -5.0970   53.4900 C   0  0  0  0  0
    0.2760   -2.6540   47.2240 C   0  0  0  0  0
   -0.0260   -1.6600   49.6280 C   0  0  0  0  0
   -2.3410   -2.1160   50.7800 N   0  0  0  0  0
  1 31  1  0  0  0
  2 32  1  0  0  0
  3 26  1  0  0  0
  4 33  1  0  0  0
  5 26  2  0  0  0
  6 27  2  0  0  0
  7 28  2  0  0  0
  8 11  1  0  0  0
  8 12  1  0  0  0
  9 13  1  0  0  0
  9 15  1  0  0  0
 10 14  1  0  0  0
 10 24  1  0  0  0
 11 26  1  0  0  0
 12 27  1  0  0  0
 13 32  1  0  0  0
 14 31  1  0  0  0
 15 33  1  0  0  0
 16 28  1  0  0  0
 16 33  1  0  0  0
 17 27  1  0  0  0
 17 29  1  0  0  0
 18 28  1  0  0  0
 18 30  1  0  0  0
 19 25  1  0  0  0
 19 31  1  0  0  0
 20 22  1  0  0  0
 20 29  2  0  0  0
 21 23  2  0  0  0
 21 29  1  0  0  0
 22 30  2  0  0  0
 23 30  1  0  0  0
 24 32  1  0  0  0
 24 33  1  0  0  0
 25 31  1  0  0  0
 25 32  1  0  0  0
M  END
>  <MOLID> (1cf8B1)
1cf8B1

>  <SMILES_CANONICAL> (1cf8B1)
O=C(C[N]1(O)CCC[C@]2([C@H]1CC[C@@]1([C@H]2O1)C)C)Nc1ccc(cc1)NC(=O)CCCC(=O)O	

>  <FINGERPRINT> (1cf8B1)
0000000000000001010000000100001000000001000000000001000000010000010000000001000000000001001000000000010000000001000001110000000000100000000110000000000010000000000000000000000000100000000000000001010000000000000000000000000000100000000000000000000000000000000000000000000000000000000000000000000000000010000010101100000000000000001011000000000000000100110100000000000110110000000000000000011000000000100000000011011000000001100110000010000000000000100000000000001000000000010000000000000000001000000100000001100000000000101001000000000000000000000000000000000000000000000000000000101011000000001000000000000000000000000011000000001000000001010000000001000000000000001000000011100000000100000011100001000000100001000000000010000010000001000000100001000000000000000100100000000000000000000001000000000100000000000000000000000000000000000000000000000000000010000000000001000000000000000000001000000000001000000000001000001000000000000000000000011000000000000000010000000000000011010000000000000000000000010000000010101000000000

>  <MACCS166> (1cf8B1)
000000000000100100000101000001000000000000001000000010001000000001000010001100100000110011110110111101011001011100111101111100111111101111111110111110111111111110111000

>  <OB_MW> (1cf8B1)
460.245

>  <OB_logP> (1cf8B1)
3.2493

>  <OB_PSA> (1cf8B1)
131.5

>  <OB_MR> (1cf8B1)
127.256

>  <OB_ATOMIC_CHARGES> (1cf8B1)
0.0321241863 0.0006653396 -0.2456536887 -0.288816775 -0.2456536887 -0.272985258 -0.2750531189 0.0214279182 -0.0172311387 -0.0128421851 0.1145630798 0.0877578959 -0.0012954656 0.0277560709 -0.0267751465 0.0616513378 -0.1792091786 -0.1808058015 -0.3563275023 0.0179315459 0.0179315459 0.0179306141 0.0179306141 -0.0103339592 0.1378684624 0.364872318 0.2455686755 0.2300121752 0.0734488269 0.0733812893 0.117419907 0.0152409184 0.4375001856

>  <MCT_HBD> (1cf8B1)
4

>  <MCT_HBA> (1cf8B1)
9

>  <ENSEMBLE_TOTAL> (1cf8B1)
50

>  <ENSEMBLE_COORDS> (1cf8B1)
5.7251 3.1582 -6.2671 4.8748 3.4423 -1.8600 -8.4325 -5.2940 3.1192 1.1973 1.0043 -2.4239 -7.9222 -5.4448 5.3378 -2.8834 -4.4118 3.2926 1.8448 1.7965 1.3783 -5.8839 -3.4677 3.9876 1.9837 4.2985 -1.2553 3.8446 1.1608 -3.5978 -6.2027 -4.9228 3.7267 -4.5239 -3.3148 4.6363 2.8344 4.7007 -2.4448 4.2975 1.4782 -5.0149 1.1951 3.0319 -1.5295 2.8528 1.2475 -0.7259 -3.1783 -2.1019 3.0726 1.3124 -0.2359 0.3604 3.5700 3.7962 -5.3511 -1.1889 -2.5312 1.8049 -1.7638 -0.2627 2.3962 -0.0109 -2.0245 1.1236 -0.6943 0.2119 1.7254 2.9854 2.2880 -3.0713 4.4043 3.9670 -4.1976 -7.5934 -5.2293 4.1808 -3.4342 -3.3583 3.5995 1.9304 1.0001 0.4480 -2.0185 -1.6964 2.4596 0.2490 -0.7037 1.0922 4.6901 2.9027 -5.2355 3.7675 3.5852 -2.8916 2.1718 1.9300 -1.8753
5.8317 1.6975 -6.0600 5.0744 2.0396 -1.6497 -6.2809 -6.8568 3.4161 0.7182 2.4103 -2.4884 -4.5033 -5.7568 2.4983 -3.1253 -1.8941 5.2640 0.5126 2.2472 0.8532 -5.4930 -4.0349 4.8533 3.2233 4.3664 -0.9178 2.9865 0.9856 -3.6139 -6.2433 -4.5353 3.6417 -5.3742 -2.5305 4.7763 4.1977 4.3069 -2.0777 3.6085 1.1119 -4.9952 1.8509 3.8564 -1.3172 2.1191 1.4022 -0.7229 -3.7982 -2.1758 3.0382 0.2569 0.0902 -0.0144 4.4330 3.4198 -5.0711 -2.4440 -2.1658 1.1108 -2.0618 -0.4712 2.7907 -1.4171 -1.5383 0.2935 -1.0881 0.0876 2.0487 2.9334 2.3459 -2.9591 5.1331 2.9516 -3.9111 -5.5543 -5.7529 3.1210 -3.9640 -2.1680 4.4123 0.8731 1.3224 0.1317 -2.7411 -1.6727 2.3284 -0.7676 -0.4408 0.7295 4.7889 2.0258 -5.0583 4.3200 2.9027 -2.6483 1.9950 2.4239 -1.8025
6.2064 2.2654 -5.9011 4.9932 2.4404 -1.5878 -6.8854 -6.4604 3.5471 0.7474 1.7946 -2.7649 -5.4442 -5.3887 2.1375 -2.4146 -2.8180 5.1157 1.0270 1.8972 1.0409 -5.2614 -4.1863 5.0444 2.6239 4.3066 -1.0654 3.3766 0.9472 -3.6922 -6.3835 -4.2321 4.0345 -4.8006 -2.7584 5.2205 3.6824 4.4597 -2.1398 4.0881 1.1948 -5.0129 1.4372 3.5013 -1.5609 2.1465 1.1194 -0.9326 -3.6476 -2.1412 3.2429 0.1059 0.1238 -0.1734 4.3708 3.6292 -5.0831 -2.8139 -1.7703 1.0695 -1.6073 -0.8296 2.9405 -1.8593 -1.1307 0.1768 -0.7048 -0.2679 2.1154 2.9627 2.2661 -3.0813 5.0517 3.3415 -3.8548 -6.1591 -5.3970 3.1279 -3.4735 -2.5900 4.5406 1.0357 1.1153 0.0946 -2.6809 -1.6535 2.4046 -0.8472 -0.3903 0.6708 5.0312 2.3536 -5.0009 4.1606 3.1158 -2.6659 1.9362 2.1423 -2.0074
6.2493 3.0675 -5.8307 4.7989 3.3038 -1.5730 -8.4742 -4.4848 4.6744 1.0048 1.2928 -2.7325 -7.3381 -3.2638 3.1170 -3.4588 -4.7222 2.2608 1.0005 1.9082 1.0475 -5.2532 -5.0971 4.4703 1.9491 4.4747 -1.3649 3.8150 1.2098 -3.5160 -6.2056 -4.0969 5.0801 -3.8285 -4.6112 4.6223 3.0048 4.8024 -2.4011 4.5122 1.5102 -4.8353 1.0844 3.2975 -1.7754 2.3877 1.3048 -0.8208 -2.7970 -2.8192 3.4485 0.6781 -0.1595 0.0121 4.0619 3.8937 -5.1959 -1.8967 -2.4882 1.2575 -1.0921 -1.1408 3.0935 -0.9950 -1.7771 0.3723 -0.2567 -0.4776 2.2699 2.9956 2.4033 -3.0818 4.7330 3.9561 -3.9293 -7.3666 -3.8993 4.1598 -3.3425 -4.0849 3.3031 1.2619 1.0871 0.1726 -1.9305 -2.2123 2.5751 -0.2222 -0.7801 0.8432 5.0657 2.8931 -4.9524 3.8755 3.6042 -2.7436 1.9796 2.1057 -2.0272
6.1456 3.5352 -5.6873 4.9428 2.7957 -1.4096 -4.4967 -5.0581 5.3157 1.0997 1.0087 -2.7632 -5.9726 -6.4370 4.2537 -3.6437 -1.9277 4.5105 1.6384 1.0511 1.1563 -6.4248 -3.4129 3.4381 2.1011 3.8463 -0.7928 3.8430 1.1751 -3.7333 -6.5783 -4.1540 4.7446 -5.8809 -2.0231 3.6801 3.1111 4.4156 -1.7708 4.4558 1.7765 -4.9903 1.2192 2.7924 -1.4366 2.5842 0.6502 -1.0081 -4.0118 -2.1426 2.2098 0.8547 -0.7517 -0.1037 3.9966 4.1744 -4.7611 -2.3479 -2.4873 0.5700 -2.0022 -0.7589 2.2212 -1.0916 -2.0932 -0.0534 -0.8298 -0.4152 1.6596 3.0612 2.2318 -2.9862 4.7437 3.9515 -3.5566 -5.6790 -5.3472 4.7212 -4.3850 -2.0279 3.5376 1.6133 0.3870 0.1232 -2.7796 -1.8631 1.6825 -0.3598 -1.0798 0.4522 5.0087 3.1536 -4.8142 3.9565 3.3361 -2.4320 2.1081 1.6983 -1.9770
5.9019 2.6627 -5.9778 4.3827 3.8739 -1.9119 -7.5374 -3.5459 2.8076 1.2512 0.7302 -2.1851 -7.5499 -5.8124 2.5393 -4.2283 -1.4269 3.7758 1.0341 2.1702 1.3357 -4.9255 -4.6701 4.0095 1.3322 4.2939 -1.8672 3.9931 1.0839 -3.0557 -6.3772 -4.8152 4.3952 -4.2809 -3.5710 4.8218 2.2793 4.5390 -3.0265 4.5955 1.1135 -4.4526 0.8056 2.8701 -1.8472 2.5792 1.6881 -0.4328 -2.5582 -2.9951 3.2852 1.4510 -0.0583 0.7758 3.5651 3.0856 -5.4814 -0.7951 -2.8500 1.7215 -1.4184 -0.8598 2.9353 0.2526 -2.0788 1.0640 -0.4585 -0.1469 2.3192 2.8964 2.1192 -2.9464 4.1873 3.7009 -4.3443 -7.2019 -4.8135 3.1497 -3.7083 -2.5312 3.9016 1.5589 1.3173 0.6241 -1.6260 -2.2597 2.6024 0.4013 -0.7628 1.3179 4.7862 2.4843 -5.0162 3.4317 3.5452 -3.0515 1.9804 1.9196 -1.7850
5.8428 3.7181 -5.7208 5.1081 2.5799 -1.4413 -5.8751 -3.2635 6.7978 0.9013 1.5246 -2.4487 -4.1571 -4.0448 5.5154 -3.7936 -4.7554 2.2907 1.6942 0.6821 1.2599 -6.4082 -3.1501 3.6024 2.5640 3.8233 -0.2764 3.5043 1.4163 -3.7530 -6.4307 -4.1712 4.7155 -5.9766 -3.7855 2.2995 3.4667 4.4205 -1.3383 4.0230 2.1057 -5.0052 1.4608 2.9813 -0.8893 2.5731 0.6721 -0.9711 -4.0324 -2.4614 1.9094 0.7445 -0.7370 -0.3334 3.9304 4.4891 -4.4391 -2.1386 -2.8766 0.5123 -2.2923 -0.8019 1.7451 -0.8744 -2.4196 -0.0370 -1.1456 -0.3580 1.1950 2.9730 2.4478 -2.7838 4.7815 4.0222 -3.3839 -5.3475 -3.8302 5.6872 -4.4791 -3.7441 2.1747 1.6162 0.2396 0.1175 -2.8058 -2.1207 1.4046 -0.3775 -1.2131 0.2976 4.7777 3.3692 -4.7495 4.0723 3.3556 -2.2393 2.1008 1.8854 -1.7143
5.9901 2.7093 -5.7656 5.1030 1.7807 -1.4514 -4.2509 -4.8555 6.4886 0.7690 2.2927 -2.2722 -3.0547 -3.4789 5.1180 -5.0637 -4.0990 0.6701 1.1461 1.0981 1.3383 -5.8514 -4.4600 3.8690 3.2073 3.8152 -0.1555 3.0893 1.3141 -3.6978 -5.4663 -3.5309 4.9984 -6.2843 -3.6429 2.6733 4.2253 4.0762 -1.2502 3.7542 1.8163 -4.9707 1.8564 3.4236 -0.7266 2.1213 0.8822 -0.8446 -4.2131 -2.5693 2.2228 -0.0727 0.0618 -0.3638 4.5341 4.0603 -4.3692 -3.3394 -1.5251 0.2691 -1.9800 -1.6691 2.2649 -2.2505 -0.8187 -0.3799 -0.9768 -0.9995 1.6659 3.0032 2.4357 -2.6867 5.2178 3.2913 -3.3701 -4.1200 -3.9310 5.5079 -5.1263 -3.4847 1.7298 1.0192 0.7162 0.1789 -3.1965 -1.9772 1.5281 -1.1199 -0.5310 0.2934 4.9174 2.7251 -4.7416 4.3740 2.8895 -2.1926 2.0389 2.1847 -1.5778
5.7353 3.8531 -5.7821 4.7846 3.3511 -1.4074 -6.1220 -4.1113 6.4607 1.1639 1.0096 -2.4744 -7.8980 -2.9049 5.6876 -3.9317 -4.6599 0.8452 1.7062 1.1287 1.4183 -6.0445 -3.8217 3.2662 1.8704 4.0628 -0.7367 3.8280 1.4001 -3.5467 -5.8205 -2.9275 4.4644 -4.8247 -4.6917 3.0615 2.7445 4.6773 -1.8142 4.3077 1.9625 -4.8767 1.1093 2.8547 -1.2510 2.7752 0.9778 -0.7232 -3.1995 -3.0774 2.4026 1.2307 -0.6935 0.0382 3.5507 4.2918 -4.8189 -1.1837 -3.2679 1.1326 -1.9072 -1.1003 1.9204 -0.0259 -2.6259 0.5324 -0.8271 -0.5091 1.3747 2.9439 2.4094 -2.8491 4.3612 4.2731 -3.6351 -6.7504 -3.3073 5.5699 -3.9589 -4.1472 1.9596 1.8281 0.5136 0.3627 -2.1174 -2.5317 1.7646 0.1736 -1.3006 0.6702 4.6849 3.4076 -4.8343 3.7024 3.6647 -2.4278 2.1110 1.8403 -1.7543
5.6564 1.9194 -6.1675 4.9961 1.2776 -1.7828 -4.5860 -5.1309 2.0780 0.7833 2.6511 -2.2432 -3.5310 -6.6205 3.4478 -4.0656 -1.0914 5.0076 0.9686 1.6475 1.1761 -4.8267 -4.1077 4.9877 3.6485 3.6411 -0.3902 2.7396 1.1610 -3.8187 -5.3823 -5.3154 4.2713 -5.5794 -2.8764 4.5419 4.5780 3.7051 -1.5863 3.3705 1.5034 -5.1583 2.1986 3.5124 -0.8178 1.9369 0.9725 -0.9137 -4.4610 -1.7235 2.7901 -0.2519 0.2595 -0.2542 4.6164 3.5683 -4.7186 -2.2493 -0.8051 2.6923 -3.4908 -1.1683 0.6509 -1.1567 -0.2803 1.8985 -2.4805 -0.6647 -0.0861 2.9512 2.3048 -2.8544 5.2225 2.7082 -3.7453 -4.3870 -5.7708 3.2549 -4.5944 -1.8107 4.1659 0.8437 1.0189 0.1289 -3.3808 -1.2334 2.1022 -1.2666 -0.1807 0.5602 4.7020 2.1739 -5.0618 4.4219 2.4940 -2.4923 2.0559 2.2610 -1.6634
5.7809 2.1826 -6.0898 4.7864 2.7103 -1.7285 -4.7455 -4.9533 1.6719 0.6604 1.2222 -2.4632 -6.6244 -3.7132 1.2999 -2.5964 -4.2847 4.3158 1.1606 1.9914 1.3012 -5.8107 -3.2983 4.2579 2.1399 4.2999 -1.3301 3.3353 0.7451 -3.5018 -6.1408 -4.5665 3.5071 -4.6675 -3.5190 5.2218 3.1556 4.4396 -2.4457 3.9397 0.9167 -4.8888 1.0910 3.2428 -1.6214 2.1988 1.1233 -0.6833 -3.1071 -2.0095 4.2190 0.3072 0.0432 0.3402 3.8088 3.3358 -5.2854 -1.8765 -2.2898 2.1859 -1.7466 -0.1983 3.3911 -0.9534 -1.7500 1.2042 -0.9223 0.3143 2.4579 2.7387 2.0535 -3.0374 4.5956 3.3188 -4.0865 -5.8907 -4.3374 2.0508 -3.3493 -3.3375 4.5240 1.1674 1.1263 0.4295 -2.2378 -1.5608 3.2592 -0.4704 -0.4992 1.3346 4.6732 2.2011 -5.1021 3.8090 3.1194 -2.8192 1.7911 1.9313 -1.8886
5.9487 3.0982 -5.8609 5.1278 1.4618 -1.7595 -4.4853 -5.0562 6.6204 0.8142 2.4561 -2.2311 -3.0660 -4.0824 5.1219 -6.0474 -1.4288 2.0281 1.4408 0.6614 1.1072 -6.0819 -3.9660 4.1277 3.4699 3.3526 -0.0130 3.0071 1.5817 -3.9401 -5.1199 -5.1058 4.3728 -6.2159 -3.7333 2.6399 4.4577 3.7425 -1.0953 3.6736 2.2518 -5.1313 2.0682 3.1863 -0.5691 2.0532 0.6979 -1.2111 -4.1110 -2.7289 2.2131 -0.1342 0.0253 -0.4959 4.6619 4.2828 -4.1772 -1.8886 -1.9792 2.0978 -3.4283 -1.2767 0.3699 -0.8263 -1.2956 1.3823 -2.4521 -0.6028 -0.2673 3.0502 2.5045 -2.7436 5.3081 3.2935 -3.3648 -4.1044 -4.6721 5.3790 -5.4708 -2.4852 2.2629 1.1003 0.4783 -0.0582 -3.1501 -1.9525 1.6289 -1.0949 -0.5963 0.2627 4.9165 3.0114 -4.7994 4.4718 2.7449 -2.2435 2.1070 2.1309 -1.6535
6.1779 3.3782 -5.5607 4.8895 2.7517 -1.2947 -6.0074 -3.5320 6.7187 0.7424 1.8943 -2.6649 -7.4278 -2.1933 5.5376 -3.9848 -5.1832 1.0536 0.6115 1.4667 0.9130 -5.7882 -3.8593 3.4504 2.3458 4.3241 -0.5775 3.4589 1.4713 -3.6431 -5.3486 -2.9296 4.5575 -4.7688 -4.9642 3.2981 3.4190 4.7210 -1.5720 4.1729 1.9780 -4.8880 1.2508 3.4969 -1.2260 2.1585 1.1241 -0.9014 -2.7499 -3.9137 2.5746 0.4110 -0.4413 -0.4131 4.2141 4.4110 -4.5816 -1.8892 -3.1871 0.4651 -1.3030 -1.9790 2.4717 -1.0725 -2.2624 -0.2978 -0.5134 -1.1441 1.7671 2.9113 2.6368 -2.8519 4.9085 3.9998 -3.3955 -6.3976 -2.8444 5.6183 -3.8303 -4.6764 2.1611 0.9698 0.7661 -0.0290 -2.0411 -3.0359 1.7943 -0.4145 -1.2613 0.3167 4.9959 3.2076 -4.6802 4.0211 3.5169 -2.2804 1.8783 2.2628 -1.8404
5.8427 1.9967 -5.9594 4.8177 1.2534 -1.7296 -3.9213 -5.0338 2.0667 0.6316 2.5743 -2.3051 -3.6283 -6.7248 3.5704 -4.3341 -0.6774 4.8942 1.4521 0.9598 1.2129 -4.7686 -3.9509 4.8182 3.3326 3.4922 -0.3164 2.7196 1.1879 -3.9336 -5.3221 -5.0514 3.9432 -5.5847 -2.6959 4.6126 4.3189 3.6594 -1.4572 3.4647 1.5718 -5.1990 1.9136 3.3094 -0.8216 1.8873 0.7643 -1.1294 -4.4290 -1.6974 2.7963 -0.2589 0.3023 -0.2401 4.6420 3.6313 -4.6070 -2.1197 -1.0924 2.6597 -3.5712 -0.8056 0.7431 -1.0205 -0.5758 1.8631 -2.5482 -0.3479 -0.0000 2.8321 2.2953 -2.9082 5.1670 2.7641 -3.5964 -4.1969 -5.7055 3.2099 -4.6932 -1.5822 4.1477 1.0205 0.6997 0.0943 -3.3585 -1.1615 2.1361 -1.2255 -0.2002 0.5861 4.7765 2.2424 -4.9601 4.2695 2.4900 -2.4280 1.8923 2.1083 -1.7638
5.7468 1.8866 -6.0399 4.9799 1.7150 -1.6347 -2.9133 -4.5403 2.5050 0.5926 1.9113 -2.3874 -4.0593 -6.5120 2.4929 -5.9473 -0.9627 2.8734 1.3562 1.5392 1.3510 -5.7578 -4.1025 3.7207 3.0214 3.8526 -0.6483 2.9485 0.7791 -3.6940 -4.5261 -4.8518 4.1752 -5.8373 -2.7731 4.4341 3.9887 3.9728 -1.8097 3.5565 1.0840 -5.0529 1.6748 3.3187 -1.0996 2.0434 0.7984 -0.8216 -3.8841 -1.6180 3.7494 -0.0147 0.0741 0.1502 4.2621 3.4257 -4.8853 -1.7318 -0.7944 3.3248 -3.2084 -1.1248 1.4375 -0.6996 -0.3646 2.4016 -2.2633 -0.6831 0.5850 2.8227 2.0610 -2.9042 4.9871 2.8757 -3.7782 -3.8386 -5.4106 2.9729 -5.2508 -1.6967 3.5659 1.0999 0.8713 0.3535 -2.9508 -1.1396 2.8713 -0.9607 -0.2628 1.0844 4.6887 2.0579 -5.0159 4.1812 2.6482 -2.5314 1.8936 1.9654 -1.7460
6.2016 2.4282 -5.6928 4.9555 1.3566 -1.4960 -3.2477 -6.1415 4.3584 0.6940 2.0486 -2.5418 -2.3395 -4.0986 3.9142 -6.1161 -2.3772 1.4767 1.2990 0.8585 1.2181 -5.6301 -4.3358 3.9799 3.0706 3.5110 -0.2689 3.1024 1.0896 -3.8651 -4.4983 -4.2616 4.9794 -6.2371 -2.9673 3.7871 4.1945 3.7086 -1.2651 3.8893 1.5925 -5.0669 1.7485 3.1888 -0.9392 1.8585 0.6244 -1.1052 -4.4955 -1.5767 2.9612 -0.3566 0.1983 -0.2888 4.7192 3.7827 -4.3380 -3.7212 -0.7611 0.8632 -2.1433 -1.0996 2.6627 -2.6326 -0.2931 0.0305 -1.1317 -0.6598 1.8894 2.9900 2.1846 -2.8299 5.2953 2.9471 -3.3232 -3.2510 -4.7879 4.3444 -5.6118 -2.3102 2.5934 0.9141 0.6053 0.0799 -3.4897 -1.1898 2.1175 -1.3828 -0.2123 0.5240 5.0703 2.4449 -4.7323 4.3457 2.5422 -2.2287 1.9364 1.9606 -1.7978
6.2104 2.5924 -5.9045 3.9054 0.3779 -2.7328 -5.4394 -7.1413 3.3393 1.1040 3.8106 -2.3277 -7.3033 -6.1109 4.1520 -2.4220 -1.9558 5.3664 -1.2466 2.1124 -1.4230 -4.2952 -4.5762 4.4038 3.4410 2.1002 -0.2046 2.6592 2.5300 -4.4420 -5.4212 -4.7938 3.4167 -4.4319 -3.2110 5.0402 4.6190 2.1559 -1.1548 3.7783 3.0407 -5.3393 2.3045 3.0084 -0.6371 0.9551 1.4396 -2.1398 -3.5390 -1.8240 3.3200 0.0521 0.7750 -0.0240 5.5922 3.5537 -3.7690 -1.2934 -1.4145 2.6155 -3.1251 -0.2739 1.5214 -0.3735 -0.7214 1.7347 -2.2713 0.3484 0.6865 3.0319 2.7257 -2.9905 5.3980 2.1621 -3.4820 -6.1640 -6.0596 3.7118 -3.3266 -2.2888 4.6065 -0.2124 1.5000 -1.1726 -2.6168 -1.1798 2.5397 -0.8360 0.1105 0.7823 5.1602 2.7280 -4.8642 4.2236 1.8585 -2.5914 1.8827 2.6208 -2.0374
6.3593 3.1500 -5.5566 4.4693 1.0910 -2.0246 -7.6871 -5.1350 3.6100 0.5415 2.9104 -3.0410 -6.0311 -4.3188 2.2690 -1.7053 -3.9960 4.5715 -1.1131 0.8031 -1.8161 -4.8335 -4.4658 5.1038 2.8246 3.0372 -0.2741 2.8899 1.9239 -4.4589 -6.0835 -3.7678 4.6198 -3.8156 -3.4414 5.5497 4.0634 3.3524 -1.0867 3.8863 2.6138 -5.3802 1.5475 3.1943 -1.0788 1.2841 0.8576 -2.0778 -3.0691 -2.3860 3.5616 0.2529 0.2804 0.0015 4.9599 4.2751 -3.9310 -0.9072 -1.5560 2.9783 -2.7620 -1.2675 1.4522 -0.0521 -0.8803 2.0216 -1.9735 -0.6120 0.5797 2.8276 2.6458 -3.1325 5.2694 3.0761 -3.2071 -6.5574 -4.4291 3.3660 -2.7356 -3.3325 4.5145 -0.0064 0.6586 -1.3048 -2.2037 -1.7792 2.6937 -0.5538 -0.4271 0.8569 5.1389 3.0829 -4.7143 4.1437 2.5371 -2.3663 1.6318 2.3046 -2.2990
6.4854 2.8466 -5.3789 4.3827 1.1094 -1.7938 -6.0316 -4.4233 2.1192 0.4533 2.4253 -3.4006 -6.0500 -6.5959 2.8155 -4.6720 -1.1832 3.9979 -1.1000 0.4017 -1.6977 -4.3251 -4.3853 4.5855 2.4366 3.1607 -0.4903 3.0081 1.5064 -4.4561 -5.7636 -4.8138 4.4148 -4.2568 -3.0949 5.3693 3.7435 3.4337 -1.2063 4.0453 2.1522 -5.3648 1.2528 3.1170 -1.4391 1.2665 0.6360 -2.0807 -2.4755 -1.9104 4.3212 0.3687 0.3725 0.1195 4.8607 4.0569 -4.0503 -0.4970 -0.9600 3.4553 -2.4158 -1.1388 1.9966 0.2487 -0.3878 2.3449 -1.7320 -0.5864 0.9781 2.7679 2.3812 -3.2475 5.1708 2.9819 -3.1524 -5.9447 -5.4018 3.0521 -3.8507 -1.9661 4.4653 0.0294 0.4638 -1.2210 -1.7883 -1.3086 3.2994 -0.3331 -0.2166 1.1412 5.1920 2.7937 -4.6528 4.0022 2.4710 -2.3543 1.5216 2.0629 -2.4892
5.4573 2.7319 -6.1828 4.1878 3.8565 -2.0086 -8.1244 -4.0419 3.5975 1.2977 0.4781 -1.9905 -7.7236 -4.2554 1.3613 -1.9533 -4.4234 4.4487 1.3619 2.2835 1.4641 -5.0036 -4.3645 3.0595 1.1370 4.0501 -1.7061 3.9117 1.0310 -3.1216 -6.0480 -3.3024 2.8075 -4.3091 -4.0494 4.3644 1.9613 4.3600 -2.9427 4.3934 1.0956 -4.5639 0.7159 2.5924 -1.6616 2.6848 1.5438 -0.3923 -2.7570 -2.3896 3.6288 1.5783 -0.0041 1.0771 3.1414 2.9826 -5.4996 -0.7960 -2.5797 2.2645 -1.4828 -0.4163 3.0904 0.3282 -1.9337 1.6050 -0.4566 0.1821 2.4564 2.7591 1.9894 -2.9192 3.8093 3.6486 -4.4183 -7.3609 -3.9359 2.4832 -2.8725 -3.6733 4.1339 1.7581 1.3386 0.7867 -1.6535 -1.8587 3.0121 0.4839 -0.5965 1.6611 4.4377 2.4749 -5.1369 3.1764 3.4500 -3.0678 1.9599 1.7356 -1.6900
6.1184 3.5094 -5.8281 3.2940 0.7211 -3.7053 -6.3420 -6.6907 5.5973 2.2215 3.9566 -0.8497 -4.6314 -5.9691 6.9221 -4.5437 -3.7929 1.2957 -0.4711 2.9434 -0.2252 -4.7957 -3.9270 4.5797 3.7248 0.7064 -0.6480 2.9586 3.7253 -3.6587 -4.6661 -5.4324 4.5628 -5.6134 -3.4433 3.4024 4.7678 0.9344 -1.7234 4.1354 4.2827 -4.4479 3.0489 1.9955 -0.2181 1.0922 2.1006 -1.8563 -4.2527 -1.7527 2.3958 -0.0342 0.6544 -0.3183 6.0845 3.1987 -3.4250 -2.2235 -1.9260 1.1405 -3.1654 0.2528 1.5932 -1.1492 -1.2801 0.4109 -2.1494 0.8530 0.9425 3.4616 2.9180 -2.4838 5.3444 2.0426 -3.8400 -5.1888 -6.0204 5.8363 -4.7288 -3.0461 2.2528 0.1087 1.9750 -0.7078 -3.2179 -1.1991 1.6845 -1.1062 0.0612 0.3004 5.2846 3.3417 -4.6118 4.2052 1.6625 -2.9334 2.4289 2.6448 -1.4360
5.3390 2.8816 -6.2455 4.1994 3.8206 -1.9894 -7.5325 -4.3427 1.4472 1.2906 0.4574 -2.0326 -8.3258 -3.6729 3.4782 -1.9611 -4.5105 4.3815 1.4930 2.1679 1.4847 -5.0447 -4.3272 3.1071 1.1588 4.0161 -1.5895 3.8718 1.0504 -3.2211 -6.0401 -3.2169 2.8615 -4.3024 -4.0418 4.3918 1.9500 4.3782 -2.8335 4.3119 1.1788 -4.6724 0.7296 2.5602 -1.6006 2.7276 1.4424 -0.4366 -2.7134 -2.4248 3.6465 1.6171 -0.1126 1.0219 3.0455 3.1132 -5.4841 -0.8042 -2.6418 2.2142 -1.3888 -0.4818 3.1240 0.3196 -2.0144 1.5361 -0.3639 0.1005 2.4735 2.7321 2.0048 -2.9416 3.7490 3.7250 -4.3935 -7.4138 -3.7750 2.6714 -2.8603 -3.7173 4.1198 1.8340 1.2316 0.7664 -1.6113 -1.9146 3.0105 0.5229 -0.6853 1.6255 4.3485 2.5823 -5.1831 3.1547 3.4684 -3.0357 1.9670 1.7003 -1.7029
6.3049 4.1044 -5.0612 4.6273 1.9222 -1.5006 -7.8067 -4.3038 3.9767 0.7232 1.5150 -3.5874 -6.7199 -6.1157 3.1143 -2.1306 -2.3832 5.5019 -0.0073 -1.0224 -2.1393 -4.6932 -4.1463 4.6275 1.9170 3.0568 -0.5822 3.5297 1.5740 -4.3238 -5.5579 -4.0241 3.3949 -4.4663 -2.7651 5.1962 3.0694 3.8139 -1.2141 4.3268 2.5249 -5.2040 0.9595 2.5160 -1.6286 2.0345 0.2401 -2.0143 -3.1933 -1.5213 3.6069 0.8288 -0.3761 -0.0557 4.1870 4.6628 -4.0156 -0.9047 -1.0526 3.1209 -2.4927 -1.2266 1.3086 0.1325 -0.7756 2.1463 -1.5378 -0.9198 0.4075 2.8364 2.3494 -3.2261 4.7802 3.8553 -2.9895 -6.7231 -4.9522 3.4877 -3.1180 -2.2467 4.7860 0.8125 -0.4396 -1.4369 -2.1620 -1.3254 2.7240 -0.1577 -0.7175 0.8329 5.0477 3.5994 -4.4576 3.8187 2.9759 -2.2402 1.7349 1.6037 -2.5551
6.7632 4.0761 -4.3625 4.7050 1.3494 -1.4406 -5.2332 -4.8108 6.8580 0.8171 2.1142 -3.4576 -4.8182 -6.5193 5.4032 -5.6341 -1.3597 1.6763 -0.3071 -0.5721 -2.6932 -5.5105 -3.8727 3.7927 2.1912 2.6219 -0.1927 3.6086 1.9141 -4.2267 -4.4003 -4.2388 4.7495 -5.7076 -2.3755 3.8326 3.4578 3.3251 -0.6410 4.5607 2.9214 -4.8530 1.1756 2.5222 -1.3163 1.8994 0.2868 -2.2855 -3.6741 -1.4920 2.9451 0.5765 -0.6446 -0.5300 4.7466 4.6783 -3.1539 -2.8683 -0.6865 0.8511 -1.3328 -1.7564 2.3800 -1.7631 -0.4547 -0.0559 -0.3023 -1.5357 1.5385 3.0282 2.4828 -2.9517 5.1840 3.5501 -2.3845 -4.8502 -5.3275 5.6660 -5.0139 -1.7228 2.6717 0.5800 -0.3277 -1.8805 -2.6814 -1.3459 2.0098 -0.5242 -0.8791 0.2553 5.4320 3.6401 -3.8751 4.0825 2.6704 -1.8640 1.8130 1.7689 -2.4654
6.0594 2.2073 -5.8764 3.9994 0.3471 -2.3283 -5.2075 -6.5056 2.3788 0.7720 3.3966 -2.5700 -4.3144 -4.5875 1.5248 -2.5350 -2.0750 5.6756 -1.2361 1.8855 -1.1559 -4.5928 -4.4346 4.6999 3.2931 2.4858 -0.1624 2.5223 1.9632 -4.3927 -5.5942 -4.5291 3.5709 -4.6860 -3.0801 5.3658 4.4665 2.4708 -1.1195 3.5830 2.4352 -5.3792 2.0527 3.1299 -0.7539 0.9389 1.1285 -1.8851 -3.7505 -1.6329 3.7316 -0.0025 0.4475 0.2055 5.2969 3.4580 -3.9498 -1.5428 -1.6477 2.8211 -3.1786 -0.0631 2.0005 -0.5774 -1.0903 1.8921 -2.2865 0.4407 1.1277 2.8451 2.4777 -3.0089 5.2709 2.1319 -3.4067 -4.9463 -5.1765 2.3892 -3.5167 -2.2322 4.9565 -0.2298 1.2229 -0.9205 -2.7874 -1.1388 2.8953 -0.9363 -0.1050 1.0468 4.9866 2.3959 -4.8681 4.1289 1.8562 -2.4659 1.7051 2.4176 -2.0390
6.3808 3.3266 -5.3741 4.4106 1.0423 -2.0263 -5.6845 -3.8950 2.3648 0.4733 2.8057 -3.1005 -7.4484 -5.0453 3.2389 -1.5860 -3.8103 4.7391 -1.1218 0.4622 -2.0236 -4.7609 -4.4157 5.1445 2.6553 2.8900 -0.2440 2.9018 1.9783 -4.4729 -6.0299 -3.7374 4.6815 -3.7713 -3.3665 5.5985 3.9282 3.2425 -0.9856 3.9135 2.7398 -5.3180 1.4142 3.0679 -1.0996 1.2647 0.7552 -2.1728 -3.0402 -2.4197 3.5474 0.1820 0.2458 -0.1007 4.9033 4.3344 -3.7400 -0.9466 -1.4256 2.9809 -2.7355 -1.4756 1.3526 -0.1150 -0.7515 2.0034 -1.9719 -0.8202 0.4576 2.7791 2.6232 -3.1119 5.2114 3.1017 -3.0737 -6.4721 -4.3236 3.3794 -2.6668 -3.2494 4.5900 -0.0388 0.4834 -1.4462 -2.1953 -1.8120 2.6606 -0.5961 -0.4611 0.7797 5.1329 3.1916 -4.5820 4.0680 2.4982 -2.3034 1.5618 2.2202 -2.3437
5.0469 0.3374 -5.6961 2.1540 0.3166 -2.2826 -5.6739 -6.9247 4.2684 2.1106 4.7811 -2.1268 -6.2150 -6.4814 2.0962 -1.7373 -3.0099 4.2751 -0.1738 3.6416 0.3851 -4.8253 -3.9490 3.3348 3.1186 2.1547 0.0753 2.4406 2.6860 -4.1842 -4.3442 -5.3676 3.1429 -4.1008 -3.2906 4.4872 3.9370 1.3283 -0.8969 3.5625 2.3132 -5.1389 2.7956 3.5375 -0.4624 0.6170 3.1074 -1.8143 -3.1667 -1.4198 3.3374 -0.1624 1.4199 -0.3487 5.3828 1.6112 -3.6543 -1.3690 -1.3404 1.7579 -2.6411 0.6592 2.2448 -0.5606 -0.5636 0.8366 -1.9206 1.3677 1.3555 2.9562 2.6607 -2.7654 4.3638 0.6944 -3.2344 -5.5192 -6.2895 3.0819 -2.8595 -2.5890 4.0097 0.0578 2.7798 -0.4560 -2.3484 -0.7486 2.4679 -0.8058 0.7475 0.6532 4.4371 1.2015 -4.6579 3.3412 1.2646 -2.2959 2.1017 3.3637 -1.7951
6.3207 3.7335 -5.4343 2.4691 1.7315 -4.2544 -7.0757 -5.9748 5.7690 2.9073 3.2844 -0.1075 -5.0240 -6.7336 6.4142 -4.6543 -3.4311 1.3392 -0.1134 3.2133 0.3981 -4.5071 -4.3763 4.4484 2.7465 0.0598 -1.6748 3.5767 4.1648 -2.7971 -5.3094 -5.6451 4.2729 -5.1286 -3.2351 3.6716 3.8010 0.3137 -2.7347 4.9047 4.4823 -3.4686 2.7672 1.1241 -0.5926 1.1193 2.7788 -1.6200 -3.2526 -2.1285 2.6822 -0.4929 1.2366 -0.7847 6.0797 2.3288 -3.4705 -2.6141 -1.5047 0.4598 -1.8664 -0.1784 2.3340 -1.8984 -0.6052 -0.4246 -1.1681 0.6342 1.5156 3.6039 2.7567 -2.2467 4.8985 1.9649 -4.1977 -5.7442 -6.1673 5.6068 -4.3358 -2.9538 2.4246 0.1342 2.4411 -0.5225 -2.6428 -1.2840 1.7878 -1.2050 0.4368 0.0715 5.4785 3.3608 -4.2715 3.6880 1.7022 -3.3469 2.5376 2.4695 -1.2466
6.7960 2.9859 -4.5295 4.2346 1.2899 -1.2513 -3.1924 -4.5615 2.5449 0.5930 1.6339 -3.7767 -4.5066 -6.3688 2.9983 -5.5312 -0.6334 3.4942 1.7564 0.0577 0.1631 -5.5050 -3.7340 4.5071 1.7148 3.1255 -0.7188 3.4575 1.1309 -4.1700 -4.2746 -4.6047 4.6237 -5.2269 -2.3744 5.1056 3.1166 3.5059 -1.1520 4.5593 1.8587 -4.9286 0.8222 2.7397 -1.8853 1.3010 0.2109 -2.1833 -3.4109 -1.5625 3.8077 -0.4593 0.1645 -0.5606 4.7380 4.0123 -3.7629 -3.3077 -0.9393 1.5002 -1.2966 -0.9510 2.8447 -2.5178 -0.4808 0.3733 -0.5633 -0.5416 1.7940 2.8221 2.0706 -3.1736 5.0025 3.1161 -2.6748 -4.0370 -5.2867 3.3157 -4.7698 -1.4322 4.0300 0.9138 0.1211 -0.7270 -2.7307 -1.1350 2.7007 -1.1878 -0.3143 0.4974 5.3943 2.7751 -4.0936 3.7806 2.4874 -2.0681 1.5150 1.6340 -2.6446
5.5887 2.3559 -6.0845 4.4567 3.1730 -1.7967 -5.9087 -3.7237 0.6421 0.9557 0.4607 -2.1663 -3.9968 -4.5135 1.6037 -2.9239 -3.8758 4.7068 1.3094 2.0068 1.4168 -6.0158 -3.0045 3.6305 1.4647 3.9635 -1.5226 3.6542 0.6432 -3.2468 -6.0206 -4.3291 2.9028 -5.1571 -3.0624 4.8721 2.3996 4.2401 -2.6815 4.1888 0.7861 -4.6642 0.7718 2.6192 -1.6431 2.4490 1.0595 -0.4719 -3.3750 -1.6705 4.0915 0.9457 -0.2355 0.8901 3.3588 2.9812 -5.3725 -2.2252 -0.0515 2.8263 -1.2936 -2.2786 2.9251 -1.1063 0.3380 1.9878 -0.2394 -1.9100 2.1732 2.7031 1.7765 -2.9399 4.1104 3.3661 -4.2122 -5.1761 -4.2029 1.6745 -3.6996 -2.9418 4.5261 1.4854 1.0279 0.6957 -2.3345 -1.3176 3.2702 -0.1261 -0.5388 1.6954 4.5174 2.1863 -5.0709 3.4119 3.1271 -2.9015 1.8273 1.5447 -1.7562
5.5010 3.7568 -5.7172 4.6380 3.1545 -1.3562 -4.8400 -1.3060 4.1666 0.8786 1.0072 -2.4082 -6.7408 -1.6430 5.3805 -2.7048 -5.4409 3.0982 1.4888 1.0090 1.4284 -5.7114 -4.2891 3.8894 1.7790 3.9367 -0.5707 3.5433 1.3123 -3.5298 -6.3070 -2.9787 3.4250 -5.0196 -4.9674 2.7280 2.6311 4.5573 -1.6603 4.0042 1.9058 -4.8508 0.9485 2.7839 -1.1030 2.5658 0.8413 -0.7055 -3.3475 -3.3354 2.3078 1.0670 -0.8463 0.0707 3.3573 4.2657 -4.6945 -1.3089 -3.4774 1.0784 -2.0119 -1.3599 2.0143 -0.1491 -2.8059 0.5203 -0.9632 -0.7290 1.4530 2.7161 2.3298 -2.7789 4.1879 4.1658 -3.5302 -6.0109 -1.9267 4.4428 -3.5550 -4.6308 2.7452 1.6353 0.3743 0.3885 -2.1831 -2.7952 1.8407 0.0360 -1.4852 0.7092 4.4476 3.3299 -4.7652 3.5363 3.5364 -2.3320 1.8913 1.7503 -1.6842
5.3052 2.5971 -6.1508 4.0014 3.6919 -1.9762 -7.2124 -2.7740 1.1992 1.2368 0.2113 -1.8959 -5.1651 -3.6425 0.6868 -2.7315 -4.5703 3.5767 1.1727 2.2126 1.4420 -5.6208 -3.0310 3.8169 0.9145 3.7893 -1.7113 3.8206 0.8699 -3.0648 -6.1553 -4.0586 2.8465 -4.5907 -3.6383 4.7375 1.7548 4.1212 -2.9278 4.3083 0.9441 -4.5038 0.5523 2.3175 -1.6462 2.5430 1.3587 -0.3338 -2.6353 -2.3414 4.2693 1.4716 -0.0896 1.2570 2.9868 2.7723 -5.4632 -0.7228 -2.5872 2.8564 -1.5124 -0.3755 3.4123 0.3288 -1.9867 2.0592 -0.5158 0.1818 2.6960 2.6303 1.7814 -2.8760 3.6288 3.4720 -4.3854 -6.0894 -3.4810 1.4692 -3.2326 -3.5798 4.1015 1.6086 1.2276 0.8516 -1.6420 -1.8243 3.4774 0.4309 -0.6481 1.9588 4.3003 2.3165 -5.0950 3.0008 3.2538 -3.0351 1.8297 1.5091 -1.6490
6.0267 3.1571 -5.7188 2.9796 0.5604 -3.6596 -3.4638 -6.1330 5.9969 2.3148 3.7270 -0.6088 -2.7526 -5.5196 3.9174 -5.2112 -3.3556 1.3042 -0.4518 2.9584 0.0487 -5.0919 -3.6501 4.6048 3.4876 0.3353 -0.6192 2.9583 3.5727 -3.4473 -5.0470 -5.1596 4.5763 -6.0214 -3.1211 3.5374 4.5188 0.5138 -1.7146 4.1661 4.0490 -4.2429 2.9561 1.6599 -0.1032 0.9782 2.0553 -1.6708 -4.6296 -1.4569 2.5320 -0.2530 0.6456 -0.1802 6.0184 2.7200 -3.3359 -2.6598 -1.7729 1.2129 -3.3572 0.4643 1.8058 -1.5424 -1.2025 0.4851 -2.3012 0.9908 1.1554 3.4048 2.6572 -2.3306 5.1532 1.6690 -3.7870 -3.6301 -5.5981 4.7637 -5.2345 -2.6869 2.3336 0.0162 1.9653 -0.5005 -3.5569 -0.9769 1.8251 -1.3625 0.1313 0.4430 5.2088 3.0074 -4.4892 4.0031 1.3590 -2.8674 2.3763 2.4341 -1.2662
5.2272 1.7592 -5.6604 2.1211 0.5944 -2.6420 -6.2041 -3.4420 5.8204 1.9247 4.7512 -1.0744 -4.6805 -2.1484 4.7179 -1.4809 -4.7673 2.5109 -0.5856 2.8192 0.7821 -4.4163 -5.1314 3.7834 2.9103 1.5785 0.2539 2.4328 3.4408 -3.6506 -5.5605 -4.1485 3.6903 -3.8031 -5.3280 2.4163 3.7938 1.1127 -0.8871 3.6166 3.4107 -4.6063 2.5586 3.0530 0.1645 0.4621 3.0453 -1.3660 -3.0408 -3.1645 1.8257 -0.1510 0.9222 -0.5124 5.3762 2.3093 -3.3014 -1.1309 -2.4389 0.5947 -2.7250 -0.8179 1.4278 -0.3646 -1.3480 0.0261 -2.0402 0.1884 0.8555 2.8685 2.9679 -2.2834 4.3736 1.2840 -3.2721 -5.4039 -3.1313 4.7729 -2.6280 -4.4073 2.2694 -0.1461 2.2728 -0.2242 -2.2438 -2.1843 1.3075 -0.7873 -0.0779 0.1651 4.5112 2.2242 -4.4480 3.2792 1.5025 -2.2668 1.9368 3.2994 -1.1894
6.3274 2.1335 -5.4231 3.5192 0.0107 -2.6105 -3.7802 -5.9672 2.1282 1.1635 3.7438 -2.0968 -2.3440 -4.6537 3.3188 -3.1581 -1.9735 5.1485 -1.3861 2.2943 -1.3450 -5.4791 -4.0669 3.8436 3.0821 1.5686 0.0148 2.7007 2.4471 -4.2114 -4.5245 -5.1808 4.2056 -5.3260 -2.8886 4.7759 4.3322 1.5409 -0.8407 3.9397 2.8725 -4.9849 2.1219 2.6627 -0.4131 0.7103 1.4123 -2.1401 -4.3244 -1.3761 3.2166 -0.3825 0.5172 -0.2136 5.6731 3.0065 -3.2582 -3.7099 -0.4109 1.1577 -1.9509 -0.9775 2.7124 -2.6943 0.0891 0.2476 -1.0114 -0.4845 1.8846 2.9846 2.4685 -2.7269 5.2844 1.6329 -3.1075 -3.4235 -5.2118 3.1938 -4.1301 -2.0580 4.4033 -0.4663 1.4959 -1.1909 -3.3600 -0.9433 2.3436 -1.3965 0.0967 0.6076 5.2263 2.3343 -4.4479 4.0176 1.4191 -2.3239 1.7646 2.4464 -1.8680
6.0780 3.9419 -5.0396 4.8337 2.2966 -1.0490 -3.4140 -2.9802 6.4669 0.7748 1.3827 -2.6527 -3.7901 -1.5384 4.7401 -5.4835 -1.7349 2.0986 1.1380 0.3974 1.0143 -5.1666 -4.2971 4.1636 2.1488 3.4575 -0.0708 3.5177 1.4554 -3.6605 -5.3920 -3.2702 5.2495 -5.9199 -3.9370 2.9035 3.1990 4.1461 -0.9198 4.1810 2.2870 -4.7474 1.1356 2.7128 -0.9207 2.2635 0.4063 -1.1043 -4.1256 -3.4999 1.3846 0.5097 -1.1576 -0.6125 4.0327 4.5844 -3.9018 -2.6934 -1.5873 1.2119 -2.0599 -3.6555 0.1352 -1.5016 -0.9718 0.6667 -0.9286 -3.0937 -0.3383 2.8764 2.3689 -2.6422 4.7505 3.9722 -2.8222 -4.1280 -2.4910 5.4260 -5.1532 -2.9176 2.1088 1.2337 -0.0837 -0.1119 -2.9838 -2.8751 0.9491 -0.6212 -1.6977 -0.0477 4.9053 3.4951 -4.2496 3.9048 3.1837 -1.8625 1.8783 1.7006 -1.7653
5.2110 0.2965 -5.1989 1.7080 0.2650 -2.4059 -4.2562 -4.9176 1.7071 1.9248 4.6858 -1.8942 -6.4505 -4.7593 2.3106 -1.4578 -3.9684 2.9509 -0.9909 3.5837 0.0005 -4.3369 -3.6945 4.5175 2.3379 1.8515 0.2483 2.5009 2.7232 -4.0087 -4.7469 -5.0506 3.9929 -2.8645 -3.6834 4.8600 3.2585 1.0266 -0.6286 3.7565 2.3280 -4.7703 2.1984 3.2871 -0.2255 0.2886 3.1092 -1.9721 -2.1068 -1.8157 3.5911 -0.7746 1.3821 -0.7416 5.2153 1.3936 -3.0338 -1.8241 -1.5350 1.2340 -1.3562 0.3073 2.7313 -1.4528 -0.6850 0.1211 -1.0270 1.1022 1.6951 2.7362 2.5624 -2.5253 4.0807 0.5290 -2.8901 -5.2711 -4.8836 2.6032 -2.0712 -3.1962 3.6816 -0.5365 2.7417 -0.7670 -1.7516 -1.0734 2.4965 -1.0910 0.5940 0.3310 4.4586 1.1259 -4.2274 2.9358 1.1108 -2.1134 1.7558 3.2571 -1.6696
4.6239 1.0689 -5.9580 1.3678 1.0609 -2.8628 -2.6405 -5.7279 3.6135 3.5999 3.9710 -0.3533 -3.7234 -6.3029 5.5381 -4.1430 -3.2022 0.6636 0.4572 3.4115 1.3797 -4.9138 -3.7450 3.8833 2.5343 0.5731 0.0224 3.2903 3.3834 -3.2108 -4.9299 -5.2475 3.7378 -5.4764 -3.0925 2.6416 3.0070 0.0338 -1.3134 4.2510 2.9641 -4.3139 3.1103 1.9414 0.3403 1.4182 3.5305 -0.8164 -3.6895 -1.5602 2.2641 -0.3635 2.0414 -0.3258 5.0246 0.7535 -3.5863 -3.0421 -0.4053 0.2790 -1.8053 -0.0577 2.3294 -2.1596 0.5380 -0.3779 -0.9938 0.8280 1.7210 3.3521 2.3888 -2.0750 3.6125 0.5096 -3.6496 -3.7252 -5.8086 4.4207 -4.3613 -2.6496 1.7376 0.4761 2.9885 0.2284 -2.8576 -0.7207 1.5744 -1.1926 1.1640 0.3177 4.2895 1.4934 -4.5771 2.8339 1.0123 -2.4675 2.7691 2.8641 -0.8050
4.8239 -0.0258 -5.4237 1.4722 0.3014 -2.4555 -5.9913 -5.1444 1.7787 2.3498 4.6045 -1.7832 -3.8080 -5.5456 1.2574 -1.2885 -3.3734 3.6351 -0.6065 3.7935 0.3288 -4.5436 -3.7858 4.0006 2.4820 1.6385 0.2420 2.4989 2.6737 -3.9758 -4.4587 -5.2279 3.5573 -3.3487 -3.3970 4.8409 3.2207 0.7461 -0.7329 3.6406 2.1380 -4.8311 2.5069 3.1046 -0.1518 0.4850 3.2834 -1.7488 -2.5935 -1.4400 3.6941 -0.7070 1.6245 -0.5254 5.0660 0.9444 -3.2202 -1.6203 -1.2983 1.5157 -2.0818 0.7243 2.7615 -1.0956 -0.4857 0.4351 -1.6269 1.4785 1.7443 2.8055 2.4304 -2.5168 3.8314 0.2400 -3.0456 -4.6804 -5.3086 2.0794 -2.2967 -2.7620 3.9776 -0.2988 2.9459 -0.5041 -2.0719 -0.7247 2.6478 -1.0849 0.8559 0.5434 4.2193 0.8362 -4.3784 2.8219 0.9449 -2.1852 1.9790 3.2102 -1.5615
5.4358 3.5842 -5.7839 2.1241 3.7363 -2.7367 -4.3651 -6.3563 1.6463 3.5909 -0.0574 -0.9395 -5.4446 -6.7460 3.6193 -5.5064 -0.3799 2.8862 2.5404 0.6494 1.8374 -5.5452 -3.6457 2.8565 0.5833 1.0740 -2.5327 4.7451 2.2603 -2.2577 -4.4260 -4.6040 3.1874 -5.5480 -2.5427 3.8888 1.2393 1.6726 -3.7626 5.5493 2.4063 -3.5410 1.5451 0.1968 -1.7514 2.5207 1.9531 -0.1839 -3.4980 -1.3650 3.5673 0.5277 1.5232 1.0486 3.9758 1.7109 -5.2861 -2.7510 0.6073 2.4484 -1.2161 -1.2297 2.7744 -1.6840 1.3464 1.8039 -0.2197 -0.5364 2.1881 3.4253 1.5834 -2.5515 3.2290 2.7873 -4.7015 -4.8335 -6.0028 2.8669 -4.8659 -1.3188 3.3495 1.8834 1.2586 0.9992 -2.5488 -0.6513 2.8811 -0.4534 0.8135 1.6903 4.7418 2.7965 -4.7360 2.5116 2.4381 -3.4265 2.7369 1.0378 -1.3487
5.2189 3.9999 -5.7226 2.4378 3.9989 -2.1802 -4.7304 -4.1048 1.1054 2.9430 -0.3977 -1.7982 -6.9459 -3.6221 0.8488 -2.6191 -4.0580 3.8198 2.7263 -0.3513 1.2031 -5.7124 -3.0190 3.7791 0.2355 1.8572 -2.4047 4.5665 1.8617 -2.6138 -6.0875 -4.2628 3.0081 -4.6614 -3.3382 4.8152 0.8955 2.6263 -3.5336 5.2342 2.1957 -3.9393 0.9861 0.5780 -2.0789 2.5613 1.4990 -0.3178 -2.9091 -1.7919 4.3266 0.7775 0.9427 1.1813 3.3476 2.4734 -5.4786 -0.9438 -1.8134 2.9767 -2.1112 0.2707 3.3259 0.0076 -1.1122 2.1414 -1.1926 0.9342 2.5931 3.0845 1.6470 -2.8222 3.0073 3.4640 -4.4980 -6.0011 -3.9523 1.5492 -3.2943 -3.1207 4.2363 2.0419 0.5630 0.7518 -1.9990 -1.1705 3.5093 -0.0791 0.2202 1.9761 4.4470 3.1186 -4.8121 2.3623 2.9224 -3.2513 2.4062 0.9422 -1.6958
5.7986 2.8389 -5.7313 1.9437 1.2907 -4.1124 -4.5911 -5.3662 1.6381 2.9831 2.8455 -0.0807 -3.2608 -6.7838 2.8345 -5.5173 -1.6696 2.9863 0.0119 3.3886 0.5530 -3.9081 -4.1949 4.4943 2.2561 -0.3108 -1.5000 3.4213 3.6324 -2.8592 -4.7898 -5.3006 3.9663 -4.7359 -2.9758 4.8271 3.2487 -0.2097 -2.6422 4.7147 3.7784 -3.6433 2.4822 0.7764 -0.4654 0.9569 2.5310 -1.4770 -3.3496 -1.3408 3.7958 -0.7091 1.3289 -0.2835 5.6544 1.5160 -3.6949 -1.7863 0.2778 3.1150 -3.0168 -0.9137 1.4067 -1.0613 0.9716 2.0645 -2.3761 -0.2391 0.4346 3.3608 2.2500 -2.2508 4.3716 1.2554 -4.2769 -4.1123 -5.9093 2.7825 -4.5925 -1.9440 3.7446 0.0619 2.4774 -0.2666 -2.7449 -0.6155 2.8055 -1.3661 0.7533 0.7710 5.0722 2.5831 -4.4649 3.2284 1.1574 -3.3088 2.3514 2.1212 -1.1616
5.4953 3.8969 -5.4449 2.0887 1.4732 -3.7981 -2.8033 -2.5401 4.5744 2.9426 2.9899 0.2988 -2.6333 -4.5133 5.7040 -4.9148 -4.0828 0.4847 0.1078 2.3133 1.2361 -4.9914 -4.7615 3.7047 2.8987 -0.1982 -1.3383 3.1424 3.9900 -2.4315 -4.7645 -3.7923 4.8427 -5.8828 -4.1178 2.6690 3.7626 0.1832 -2.5243 4.3223 4.4569 -3.2690 2.9657 0.8444 -0.2375 1.0335 2.3524 -0.9818 -4.5371 -2.2969 1.9425 -0.3061 0.5417 -0.2348 5.6949 2.4403 -3.5128 -2.4670 -2.2807 0.7298 -3.3401 -0.2329 1.6764 -1.3620 -1.5150 0.1802 -2.3126 0.4751 1.1723 3.3913 2.5827 -1.9393 4.4646 1.9646 -4.0749 -3.2959 -3.6896 5.0928 -5.0413 -3.5303 1.5724 0.2413 1.7515 0.1541 -3.4471 -1.6601 1.4135 -1.2660 -0.1913 0.4094 4.8798 3.4162 -4.1843 3.4216 1.5611 -3.0722 2.5123 2.1694 -0.8145
5.4491 3.2141 -5.8184 1.4630 2.1789 -4.0029 -5.6809 -3.8302 1.1607 3.3236 2.0224 0.0314 -4.3606 -5.6906 1.2054 -1.9815 -2.4105 5.3038 0.7448 2.8315 1.4308 -3.9396 -4.7105 3.9682 1.6195 -0.2725 -2.1316 3.6917 3.5239 -2.4287 -5.2666 -4.7862 3.2513 -4.0127 -3.6150 5.0022 2.4431 -0.0009 -3.3758 4.8683 3.6392 -3.3865 2.2657 0.3081 -0.8866 1.1890 2.6142 -0.9210 -3.4976 -1.7080 3.6660 -0.6263 1.4636 0.1229 5.1080 1.3691 -4.2805 -1.5477 -0.4286 3.1775 -3.2732 -0.6461 1.4997 -0.7882 0.3874 2.2550 -2.5908 0.1591 0.6601 3.2961 2.0730 -2.2730 3.7531 1.6408 -4.6645 -5.0236 -4.8399 1.7790 -3.0229 -2.5413 4.6671 0.4505 2.3049 0.3614 -2.7206 -0.9746 2.8071 -1.2962 0.7060 1.0503 4.7898 2.7398 -4.5769 2.7401 1.4797 -3.5651 2.4335 1.7990 -1.0883
5.5321 2.9995 -5.6466 1.5626 2.2556 -3.6405 -1.9627 -3.8738 2.9498 3.5806 1.8036 0.2920 -2.5440 -6.0519 2.6081 -5.9737 -1.7553 1.6569 0.9542 2.4026 1.8325 -5.1409 -4.4619 3.2279 1.6215 -0.2998 -1.8743 3.9724 3.3336 -2.1563 -3.8823 -4.6513 4.0439 -5.7933 -3.1484 3.5914 2.3826 -0.0319 -3.1575 5.1012 3.3900 -3.1766 2.3748 0.1815 -0.6478 1.5023 2.5823 -0.5033 -4.1437 -1.5160 3.0901 -0.5308 1.5762 0.2343 5.1021 1.1413 -4.1514 -3.1765 -0.8742 0.9973 -2.3527 0.0861 3.0592 -2.2236 -0.0572 0.2694 -1.4601 0.8325 2.3834 3.4641 1.9155 -2.0275 3.7578 1.5398 -4.4552 -2.7517 -4.9609 3.1173 -5.3261 -2.0804 2.6466 0.6580 2.1369 0.6712 -3.2673 -0.7829 2.3376 -1.3657 0.7417 0.9318 4.8889 2.5431 -4.3893 2.7923 1.4256 -3.3069 2.6475 1.6586 -0.8075
5.3809 2.7375 -5.9111 1.4674 1.6950 -3.9407 -3.8638 -5.6711 1.2858 3.1980 2.5656 0.0593 -5.2333 -3.8566 1.1008 -2.1826 -2.0770 5.3290 0.3804 3.0835 1.2695 -3.7546 -4.6751 4.0295 1.8347 -0.3117 -1.6059 3.5056 3.5468 -2.6661 -4.9938 -4.9790 3.2205 -4.0403 -3.5193 4.9552 2.6464 -0.2060 -2.8820 4.6873 3.5888 -3.6240 2.3822 0.5778 -0.5046 1.0791 2.7218 -1.0029 -3.5903 -1.6846 3.5024 -0.7178 1.4855 -0.0332 5.1805 1.2209 -4.0294 -1.7385 -0.2492 3.0791 -3.2610 -0.7826 1.2793 -0.9767 0.5663 2.1596 -2.5804 0.0186 0.4348 3.2564 2.1248 -2.2180 3.8159 1.2673 -4.4706 -4.7195 -4.7398 1.7704 -3.1363 -2.3741 4.6156 0.2496 2.4440 0.2296 -2.8105 -0.9428 2.6551 -1.3919 0.7292 0.8904 4.7343 2.4616 -4.6042 2.7960 1.2294 -3.3655 2.3964 2.0044 -1.0078
4.3641 0.2822 -5.7199 1.1099 0.7882 -2.6593 -1.6362 -6.0216 3.6730 3.5540 3.7234 -0.3981 -1.5539 -4.6029 1.8880 -5.2942 -2.2581 1.0717 0.3657 3.5117 1.4016 -3.9428 -3.8315 3.7886 2.2500 0.4480 0.2695 3.1807 2.9136 -3.1859 -3.6571 -5.0704 2.9738 -5.1789 -3.1235 3.2880 2.6794 -0.2267 -1.0164 4.1038 2.3322 -4.2474 2.9150 1.7962 0.4817 1.3358 3.4011 -0.7946 -4.0886 -1.0738 2.6786 -0.5421 2.0758 -0.2000 4.7299 0.1429 -3.3297 -3.3607 -0.1369 0.6073 -2.1120 0.3197 2.6268 -2.4302 0.6902 -0.1300 -1.2476 1.0930 1.9423 3.1847 2.0225 -1.9663 3.3038 -0.0034 -3.3763 -2.1793 -5.1723 2.7685 -4.8411 -2.1365 2.2071 0.3600 3.0034 0.2850 -3.2017 -0.3453 1.9280 -1.4244 1.3110 0.5121 4.0480 0.8447 -4.3836 2.5676 0.6598 -2.2473 2.6384 2.6434 -0.7370
3.6726 1.8521 -6.1531 0.9335 1.7860 -2.6095 -2.2994 -4.2856 3.6365 4.3554 2.2676 0.2004 -2.2591 -6.0016 2.1346 -3.9395 -1.6609 3.9738 1.3485 2.3563 2.2491 -4.8782 -4.1224 1.9611 1.9226 -0.2711 -0.4289 3.6735 3.1043 -2.5381 -4.3643 -5.1468 2.9452 -5.4894 -2.9474 2.6903 2.0304 -0.3330 -1.9393 4.2868 2.8502 -3.9057 3.0504 0.5117 0.2190 2.1817 2.9557 0.0834 -4.2437 -1.1687 1.7095 -0.0622 2.2267 0.3944 4.0240 0.4314 -4.2162 -1.9657 -0.5139 2.0204 -3.3503 0.6611 0.4211 -0.8727 0.3757 1.6831 -2.3302 1.4784 0.0974 3.3460 1.7863 -1.8767 2.6523 0.8030 -4.0275 -2.8752 -5.2106 2.8324 -4.4593 -1.8712 2.8820 1.1387 2.4522 1.0437 -3.1726 -0.3577 1.4449 -1.0464 1.3522 0.7727 3.6460 1.7413 -4.6752 2.2463 1.0209 -2.5995 3.0998 1.8778 -0.4254
4.0346 0.2046 -5.6622 0.9396 0.9078 -2.5027 -1.2816 -3.5038 2.8375 3.6603 3.6455 -0.2926 -1.3288 -5.7825 2.9075 -5.3994 -2.0413 0.7714 0.3762 3.4550 1.5899 -4.2659 -4.5267 2.5941 2.1661 0.4499 0.4040 3.1096 2.8877 -3.0638 -3.2221 -4.5037 3.6879 -5.2217 -3.3659 2.7585 2.4935 -0.2279 -0.9101 3.9472 2.2505 -4.1669 2.9146 1.7544 0.6115 1.4003 3.4667 -0.5844 -3.8295 -1.4752 2.4045 -0.5775 2.2143 -0.1358 4.4655 0.0069 -3.2896 -2.7901 -0.6732 0.4104 -2.3895 0.4437 2.5216 -1.9337 0.2984 -0.2391 -1.5820 1.3346 1.9201 3.1126 1.9899 -1.8490 3.0342 -0.0300 -3.2848 -1.8653 -4.7003 3.0893 -4.8309 -2.2445 1.8397 0.3826 3.0258 0.4397 -3.0347 -0.5903 1.7318 -1.3255 1.2531 0.4884 3.7961 0.7701 -4.3117 2.3928 0.6773 -2.1257 2.6525 2.6292 -0.5896
3.9312 0.8824 -6.0321 0.9488 0.9939 -2.6939 -1.7099 -5.7605 2.0846 3.7380 3.3197 -0.1093 -2.2240 -3.7882 1.0615 -4.1146 -1.0861 4.5497 0.6660 3.0210 1.7552 -3.8910 -4.2246 3.7434 2.2263 0.0853 0.0350 3.1585 3.0649 -2.9888 -3.8707 -4.9309 2.4076 -4.9677 -3.1651 3.7354 2.5320 -0.3811 -1.3745 3.9717 2.6288 -4.1965 3.0047 1.3284 0.4275 1.4912 3.2325 -0.4839 -4.1174 -1.5127 2.2542 -0.4868 2.0083 -0.0071 4.4622 0.2689 -3.7436 -2.0413 -0.3330 2.4196 -3.3946 -0.1335 0.4229 -1.0910 0.5902 1.8297 -2.5096 0.7189 -0.1262 3.1578 1.9632 -1.9554 3.0299 0.2307 -3.7033 -2.5310 -4.7288 1.7774 -4.3328 -1.8139 3.5867 0.5404 2.7337 0.5690 -3.1737 -0.6510 1.7644 -1.3267 1.1261 0.6173 3.7724 1.2023 -4.5936 2.4181 0.7168 -2.4223 2.7337 2.3932 -0.6108

>  <OB_ATOM_TYPES> (1cf8B1)
C.3 C.3 O.co2 O.3 O.co2 O.2 O.2 C.3 C.3 C.3 C.3 C.3 C.3 C.3 C.3 C.3 N.am N.am O.3 C.ar C.ar C.ar C.ar C.3 C.3 C.2 C.2 C.2 C.ar C.ar C.3 C.3 N.4

>  <ENSEMBLE_RMSD> (1cf8B1)
1.245 1.290 1.356 1.468 1.477 1.635 1.672 1.764 1.779 1.806 1.817 1.843 1.886 1.892 1.905 1.909 1.924 1.935 1.947 1.953 1.967 1.999 2.086 2.112 2.113 2.121 2.150 2.162 2.183 2.196 2.260 2.274 2.318 2.441 2.446 2.547 2.564 2.607 2.626 2.634 2.711 2.726 2.748 2.901 2.924 2.983 3.140 3.147 3.239 3.317

$$$$
