
 OpenBabel03071213D

 18 20  0  0  0  0  0  0  0  0999 V2000
   28.4280   31.4350   27.6820 C   0  0  0  0  0
   20.7650   24.9220   27.3190 Cl  0  0  0  0  0
   23.1690   28.9090   29.4170 N   0  0  0  0  0
   21.5500   26.0860   31.0670 C   0  0  0  0  0
   21.0890   25.3520   29.9710 C   0  0  0  0  0
   22.2500   27.2770   30.8700 C   0  0  0  0  0
   26.0150   27.6920   27.5540 C   0  0  0  0  0
   26.2870   31.8800   28.9750 C   0  0  0  0  0
   22.0330   27.0130   28.4780 C   0  0  0  0  0
   24.7810   27.7440   28.1860 N   0  0  0  0  0
   26.8930   28.6810   27.4880 N   0  0  0  0  0
   25.1600   31.2710   29.3340 N   0  0  0  0  0
   27.1430   31.0470   28.2300 N   0  0  0  0  0
   21.3310   25.8160   28.6730 C   0  0  0  0  0
   22.4970   27.7490   29.5800 C   0  0  0  0  0
   24.3340   28.8830   28.8410 C   0  0  0  0  0
   26.4690   29.8110   28.1300 C   0  0  0  0  0
   25.2540   30.0170   28.8170 C   0  0  0  0  0
  1 13  1  0  0  0
  2 14  1  0  0  0
  3 15  1  0  0  0
  3 16  1  0  0  0
  4  5  1  0  0  0
  4  6  2  0  0  0
  5 14  2  0  0  0
  6 15  1  0  0  0
  7 10  2  0  0  0
  7 11  1  0  0  0
  8 12  2  0  0  0
  8 13  1  0  0  0
  9 14  1  0  0  0
  9 15  2  0  0  0
 10 16  1  0  0  0
 11 17  2  0  0  0
 12 18  1  0  0  0
 13 17  1  0  0  0
 16 18  2  0  0  0
 17 18  1  0  0  0
M  END
>  <MOLID> (1ckpA1)
1ckpA1

>  <SMILES_CANONICAL> (1ckpA1)
Clc1cccc(c1)Nc1ncnc2c1ncn2C	

>  <FINGERPRINT> (1ckpA1)
0000000000000000100000000000101000000000100000010001100000000000000000000000100000000000000000000000100000001000000001100010000000000000000010000000000001000000000000000000000011000000000000000000100000000000100000000001000000000000000000000000100000000000000000000100000000100001000000000000000000000000000010001100000000000000001100001000000000001100010000000000000010011000000100000000011000000000000100000000010000000000000000000000000000000001000000000000100000000000110000000001000000001100000000000000110000000000000001000000000000000000000100000000000001010000000000000000100001000000000000000000101010010000001000000100000000000000110000000000000000000000000000000001100000000100000110010100000000100001100000000100000001000100000000000000000000000000000001000000000000000000001000000000001000000000000000000000000000000000000000100000000000000100000000000000000000000000000000001000000000000000000000101000000000001000000000000100011000000000000000001100000000000000000000000000000000000000000000100000000011000000

>  <MACCS166> (1ckpA1)
000000000000000000001000010000000000010000001000000000000000000010000000001111110010101000001001011000101011000000000011110010000010111010001100100110100001010110101000

>  <OB_MW> (1ckpA1)
259.062

>  <OB_logP> (1ckpA1)
2.8333

>  <OB_PSA> (1ckpA1)
55.63

>  <OB_MR> (1ckpA1)
71.1387

>  <OB_ATOMIC_CHARGES> (1ckpA1)
0.133522752 -0.0822011081 -0.1927310968 0.0021997206 0.0114793319 0.0166116642 0.2015334664 0.1798189132 0.0279448443 -0.2055259126 -0.2048408902 -0.2193822212 -0.292337203 0.0589654859 0.0730099705 0.1742673929 0.1674115087 0.1502533812

>  <MCT_HBD> (1ckpA1)
1

>  <MCT_HBA> (1ckpA1)
5

>  <ENSEMBLE_TOTAL> (1ckpA1)
3

>  <ENSEMBLE_COORDS> (1ckpA1)
4.2364 3.0136 -1.1298 -3.4266 -3.4994 -1.4928 -1.0226 0.4876 0.6052 -2.6416 -2.3354 2.2552 -3.1026 -3.0694 1.1592 -1.9416 -1.1444 2.0582 1.8234 -0.7294 -1.2578 2.0954 3.4586 0.1632 -2.1586 -1.4084 -0.3338 0.5894 -0.6774 -0.6258 2.7014 0.2596 -1.3238 0.9684 2.8496 0.5222 2.9514 2.6256 -0.5818 -2.8606 -2.6054 -0.1388 -1.6946 -0.6724 0.7682 0.1424 0.4616 0.0292 2.2774 1.3896 -0.6818 1.0624 1.5956 0.0052
3.9845 2.7741 0.7497 -4.2212 -3.8025 0.1769 -1.0627 0.0562 -0.9720 -1.9487 -1.2970 2.3312 -2.8645 -2.3558 1.9576 -1.3510 -0.5633 1.3773 2.3047 -0.0509 -2.2539 1.5193 2.6481 1.1130 -2.4277 -1.8283 -0.3708 1.0417 -0.3371 -2.1368 3.0379 0.8266 -1.4872 0.4387 2.0269 0.6551 2.6638 2.3447 0.3926 -3.0866 -2.6100 0.6579 -1.5761 -0.8338 -0.0433 0.2993 0.3101 -1.1550 2.3540 1.4426 -0.5909 0.8947 1.2494 -0.4014
3.1259 2.5364 -2.4273 -4.8867 -1.1552 -0.8654 -0.5672 0.0466 1.6015 -1.5383 -3.1600 0.0828 -2.8400 -2.8223 -0.4607 -0.8445 -2.2454 0.7823 3.0194 0.2777 1.4150 0.7312 2.1644 -1.8212 -2.5858 -0.6002 0.4731 1.8447 -0.0207 1.8829 3.3070 0.9735 0.2630 -0.0224 1.6118 -0.8779 2.0894 2.0405 -1.5696 -3.3445 -1.5947 -0.2570 -1.3617 -0.8892 0.9606 0.7203 0.3786 1.1680 2.2733 1.3604 -0.3944 0.8802 1.0979 0.0442

>  <OB_ATOM_TYPES> (1ckpA1)
C.3 Cl N.pl3 C.ar C.ar C.ar C.ar C.ar C.ar N.ar N.ar N.ar N.ar C.ar C.ar C.ar C.ar C.ar

>  <ENSEMBLE_RMSD> (1ckpA1)
0.000 1.200 1.918

$$$$
