
 OpenBabel03071213D

 32 34  0  0  0  0  0  0  0  0999 V2000
   28.3540   33.4730   20.5880 N   0  0  0  0  0
   37.2410   28.1380   25.2880 O   0  0  0  0  0
   34.3090   28.4360   29.2690 O   0  0  0  0  0
   36.8190   30.3080   25.0590 O   0  0  0  0  0
   32.7160   29.3300   27.9930 O   0  0  0  0  0
   33.2080   24.9280   25.7630 O   0  0  0  0  0
   29.9880   29.2750   20.5840 O   0  0  0  0  0
   35.0490   27.3020   26.6160 C   0  0  0  0  0
   35.2230   28.8540   26.2060 C   0  0  0  0  0
   26.3790   26.5030   22.8960 C   0  0  0  0  0
   27.5320   25.6140   22.9300 N   0  0  0  0  0
   32.5820   26.8530   26.5600 N   0  0  0  0  0
   29.0990   31.3350   20.5940 N   0  0  0  0  0
   28.9590   26.7610   24.4910 C   0  0  0  0  0
   29.6120   24.6290   23.5130 C   0  0  0  0  0
   30.1820   26.7510   25.2070 C   0  0  0  0  0
   30.7960   24.6440   24.1870 C   0  0  0  0  0
   25.6420   28.9370   22.8120 C   0  0  0  0  0
   25.7510   30.1820   22.4800 N   0  0  0  0  0
   26.9870   31.8160   21.5270 N   0  0  0  0  0
   27.6830   28.2460   21.8730 N   0  0  0  0  0
   33.7190   27.1670   27.4450 C   0  0  0  0  0
   36.5400   29.1400   25.4530 C   0  0  0  0  0
   33.5300   28.4070   28.2780 C   0  0  0  0  0
   28.0800   32.2520   20.8840 C   0  0  0  0  0
   32.3600   25.8080   25.8310 C   0  0  0  0  0
   29.0270   30.0080   20.8680 C   0  0  0  0  0
   26.5850   27.9110   22.5260 C   0  0  0  0  0
   28.6890   25.7420   23.6810 C   0  0  0  0  0
   31.0980   25.7060   25.0740 C   0  0  0  0  0
   26.8490   30.4830   21.8460 C   0  0  0  0  0
   27.8000   29.5620   21.5520 C   0  0  0  0  0
  1 25  1  0  0  0
  2 23  1  0  0  0
  3 24  1  0  0  0
  4 23  2  0  0  0
  5 24  2  0  0  0
  6 26  2  0  0  0
  7 27  2  0  0  0
  8  9  1  0  0  0
  8 22  1  0  0  0
  9 23  1  0  0  0
 10 11  1  0  0  0
 10 28  1  0  0  0
 11 29  1  0  0  0
 12 22  1  0  0  0
 12 26  1  0  0  0
 13 25  1  0  0  0
 13 27  1  0  0  0
 14 16  2  0  0  0
 14 29  1  0  0  0
 15 17  1  0  0  0
 15 29  2  0  0  0
 16 30  1  0  0  0
 17 30  2  0  0  0
 18 19  2  0  0  0
 18 28  1  0  0  0
 19 31  1  0  0  0
 20 25  2  0  0  0
 20 31  1  0  0  0
 21 28  2  0  0  0
 21 32  1  0  0  0
 22 24  1  0  0  0
 26 30  1  0  0  0
 27 32  1  0  0  0
 31 32  2  0  0  0
M  END
>  <MOLID> (1dhfA1)
1dhfA1

>  <SMILES_CANONICAL> (1dhfA1)
OC(=O)CC[C@@H](C(=O)O)NC(=O)c1ccc(cc1)NCc1cnc2c(n1)c(=O)[nH]c(n2)N	

>  <FINGERPRINT> (1dhfA1)
0001000000000011110000000000101000000001101000000101100000000000000000000001100000001001000000101001100000000001000011100001000000000000000110100001000011000000000000000001000011000000000000000000000000000000111100000000010000100010000000000001100000000001000101100100000000000001000000000000000000000010000010001110000001000001001000010000000000000100010000000000000010110000000000000000011000000000100010000010001000000010010000001000000000000000000000001000111000000100010000000000000000001100000000010000110000011000000001000000000000000000000000100000000011000000000000000000100001000000000000000000000001000000001000000000001000000001010000000001000000000000100000000001110000000110100011100100000000100011100000010000100001000000000000000111000000000000000111000000000000010100000000000000000011000000000000000000000000000001011010000000000010000000000000001011000000000100000000001000010000000000000000001100000100001100000000000100011000011000000000011110000000000100010000000000000010000000100000000000101010000000

>  <MACCS166> (1dhfA1)
000000000000000000001000110000000000010000101000010001000000000010000000000111110001000001110010111000011100011010001111101010100011101111110110111000101111111010111000

>  <OB_MW> (1dhfA1)
441.14

>  <OB_logP> (1dhfA1)
1.0003

>  <OB_PSA> (1dhfA1)
213.28

>  <OB_MR> (1dhfA1)
111.919

>  <OB_ATOMIC_CHARGES> (1dhfA1)
-0.0859081447 -0.2456528507 -0.2437491398 -0.2456528507 -0.2437491398 -0.2683563611 -0.2633347417 0.0450901588 0.116406065 0.1591509049 -0.231110444 -0.1918204559 -0.1709445527 0.0162445566 0.0162445566 0.0058851094 0.0058851094 0.1170199056 -0.2222638758 -0.1902237224 -0.2384699653 0.1986171593 0.364932109 0.3842232137 0.2606703349 0.2652343159 0.3023355277 0.1001152012 0.0657536629 0.0551356744 0.1878256873 0.1744669918

>  <MCT_HBD> (1dhfA1)
6

>  <MCT_HBA> (1dhfA1)
13

>  <ENSEMBLE_TOTAL> (1dhfA1)
50

>  <ENSEMBLE_COORDS> (1dhfA1)
-3.7385 5.4963 -3.2495 6.9980 1.1698 0.7961 4.3295 -0.9059 5.0915 7.4397 -0.3804 2.4101 2.5887 0.5189 4.7233 1.9085 -3.1584 3.0202 -0.5863 2.0817 -3.4247 4.2897 0.2461 2.1133 5.3303 -0.4152 1.2398 -3.2893 -2.0712 -2.1488 -3.1870 -2.2998 -0.7201 2.1814 -0.9483 2.3829 -2.1903 3.7427 -3.3266 -0.8356 -1.6222 -0.5095 -1.8526 -3.1235 1.0812 0.2793 -1.5247 0.2358 -0.6615 -3.0109 1.9005 -4.8690 -0.0657 -2.1482 -5.1280 1.1952 -2.3069 -4.4346 3.2921 -2.7868 -2.5029 0.1520 -2.7448 3.5233 -0.7946 2.8990 6.6884 0.1102 1.5808 3.3913 -0.3073 4.3152 -3.5010 4.1460 -3.1075 1.5517 -2.1756 2.3767 -1.7443 2.4378 -3.2339 -3.4837 -0.6054 -2.3696 -1.9748 -2.4262 -0.0667 0.3440 -2.2040 1.5166 -4.0480 1.9726 -2.6706 -2.8164 1.4777 -2.8689
-3.6358 5.5763 -2.9667 6.5893 -0.5572 -0.0295 3.9669 -0.6955 5.6243 4.3380 -0.2121 -0.0999 2.2156 0.6094 4.9740 2.0919 -3.1540 3.1445 -0.3349 2.3072 -3.1444 4.2866 0.4302 2.6307 5.5364 -0.1546 2.0133 -2.8567 -2.0229 -2.3184 -2.8059 -2.3956 -0.9170 2.2519 -0.8996 2.6365 -2.0129 3.8951 -3.0626 -0.5343 -1.5547 -0.4679 -1.5514 -3.2164 0.9457 0.5198 -1.4417 0.3606 -0.4276 -3.0890 1.8574 -4.5580 -0.0998 -2.2417 -4.8788 1.1532 -2.3590 -4.2627 3.3195 -2.6825 -2.1823 0.2765 -2.6921 3.4957 -0.6518 3.3324 5.3818 -0.2946 0.5287 3.1263 -0.1593 4.7041 -3.3501 4.2295 -2.8953 1.7101 -2.1633 2.5284 -1.5166 2.6079 -3.0132 -3.1343 -0.5553 -2.4182 -1.6378 -2.4690 -0.1754 0.5595 -2.2153 1.5888 -3.8273 2.0100 -2.6183 -2.5623 1.5868 -2.7670
-2.9715 5.5130 -3.6666 2.4402 1.6999 2.0318 5.1018 -2.2959 4.7600 3.8307 1.9889 0.2471 4.8766 -3.5280 2.8568 1.3316 -1.7209 4.1946 -0.3448 1.7088 -4.1578 4.7637 -0.5107 2.0130 4.6518 0.9741 2.2821 -3.0307 -1.9463 -1.8907 -2.9925 -2.1684 -0.4586 2.7387 -1.7990 2.3581 -1.6936 3.5692 -3.9054 -0.6689 -1.4280 -0.1006 -1.8031 -2.8155 1.5081 0.3789 -1.2638 0.7280 -0.6618 -2.6777 2.3947 -4.3780 0.2426 -1.7040 -4.5487 1.5066 -1.9493 -3.7780 3.4640 -2.8182 -2.2119 0.1262 -2.8374 3.9264 -1.2895 3.0036 3.6245 1.5895 1.3829 4.6828 -2.4978 3.4852 -2.8600 4.1583 -3.4362 1.5107 -1.7878 2.9823 -1.3808 2.2322 -3.7619 -3.1398 -0.4787 -2.1694 -1.8327 -2.2203 0.2966 0.3862 -1.9218 2.0225 -3.5212 2.1181 -2.6401 -2.4266 1.4589 -3.0512
-2.4439 3.9122 -5.9327 4.2257 2.9091 2.1712 3.5516 -2.9714 4.6737 3.1176 1.3623 0.9116 5.6985 -2.8638 3.9416 2.8042 -3.2549 0.8964 -0.9274 3.2324 -1.5939 4.2963 -0.1189 3.3547 4.9861 0.7028 2.2900 -3.9887 -0.4387 0.1757 -3.2632 -1.6874 0.0734 2.6176 -1.6894 2.5946 -1.7182 3.5276 -3.7440 -1.2026 -0.7490 1.0678 -1.3875 -3.0861 0.4919 0.0991 -0.8917 1.3782 -0.0023 -3.2625 0.8723 -4.6710 0.0523 -2.2344 -4.5564 0.7046 -3.3501 -3.5149 2.2791 -4.6069 -2.8208 1.2274 -1.1431 4.0288 -1.5144 2.8405 3.9967 1.6585 1.7061 4.5278 -2.5161 3.8525 -2.6031 3.2006 -4.7625 2.1508 -2.4399 1.5403 -1.7014 2.9342 -2.4971 -3.7538 0.3339 -1.0790 -1.9829 -1.8779 0.5580 0.7169 -2.2010 1.2731 -3.5463 1.6445 -3.3808 -2.7335 1.8815 -2.3392
-3.3671 4.9023 -5.3543 4.1266 1.6337 0.9492 4.5831 -2.0868 5.5956 5.6569 0.2574 -0.0372 4.4430 -3.7367 4.0277 1.2468 -1.2209 4.2155 -2.4101 3.5772 -0.9975 5.1968 -1.1666 2.5203 5.4333 0.3175 2.3670 -3.5908 -1.4035 -1.0128 -2.2873 -2.0359 -1.0555 2.8656 -1.8001 2.6643 -2.8960 4.1898 -3.1736 -1.5832 -1.0241 1.0790 -0.2596 -2.7232 -0.0105 -0.6408 -0.8490 2.0226 0.7361 -2.5764 1.0309 -4.0325 -0.4746 -3.3455 -4.0587 0.4847 -4.2182 -3.7139 2.6514 -4.7550 -3.1699 0.9365 -1.5368 4.0215 -1.4122 3.4342 5.1095 0.7024 0.9600 4.3615 -2.5592 4.3433 -3.3425 3.8644 -4.4480 1.5797 -1.5236 3.0736 -2.7966 3.2930 -2.1264 -3.5619 -0.2307 -1.9383 -1.3852 -1.9805 -0.0100 0.5825 -1.6329 1.9776 -3.6320 1.7102 -3.7500 -3.2152 1.9162 -2.4911
-4.5152 5.5604 -3.3753 5.2215 -1.3100 0.5647 4.0008 -1.2010 6.1012 6.3913 0.6481 0.5707 2.3557 0.2507 5.4885 2.0242 -3.2610 3.4497 -6.0186 1.1779 -3.8188 4.5649 0.1719 3.2301 5.8239 -0.4367 2.6529 -1.7913 -1.5830 -2.7232 -2.0315 -2.1033 -1.3881 2.4650 -1.0300 3.0125 -5.2298 3.3358 -3.5673 0.1643 -1.4107 -0.5078 -1.2090 -2.9872 0.6827 1.0714 -1.3940 0.4857 -0.2425 -2.9658 1.7691 -1.2379 0.8862 -2.5296 -1.5279 2.1480 -2.5784 -3.0100 3.7985 -2.9515 -3.4982 0.1393 -3.1012 3.6742 -0.9124 3.7992 5.8425 -0.2671 1.1661 3.2488 -0.5296 5.1925 -4.1989 4.2219 -3.2820 1.8375 -2.2393 2.7954 -5.1125 1.9568 -3.5427 -2.2778 -0.1671 -2.7864 -1.0426 -2.2321 -0.4245 0.8483 -2.1824 1.6847 -2.8347 2.4305 -2.9100 -3.7558 1.4867 -3.1589
-4.9015 4.9581 -5.4731 4.5348 -0.6504 0.4511 4.3360 -1.6992 6.2247 6.8081 -0.8311 0.4077 3.9209 0.2393 5.0975 1.4724 -2.9704 4.0647 -3.5234 3.9240 -1.1533 5.4690 -1.7215 3.1732 5.6624 -0.3880 2.4832 -2.9096 -1.1613 -1.3182 -1.4811 -1.3907 -1.4170 3.0023 -1.5262 3.0900 -4.2036 4.3863 -3.3131 -1.2658 -1.7335 1.0197 0.6639 -1.7379 -0.4246 -0.4927 -1.9019 2.1091 1.4978 -1.9821 0.7360 -3.6424 -0.3720 -3.6252 -4.0156 0.5418 -4.4663 -4.4481 2.7068 -4.9409 -3.3018 1.1977 -1.7755 4.1474 -1.8627 3.9017 5.7652 -0.6451 1.0158 4.1144 -0.9671 5.1049 -4.5177 3.9644 -4.5983 1.8232 -2.2405 3.1427 -3.7903 3.5522 -2.2911 -3.2643 -0.0205 -2.2136 -0.6752 -1.6150 -0.3141 0.9497 -2.0065 1.9635 -4.0354 1.8256 -3.9626 -3.6990 2.1273 -2.6986
-4.6165 4.9595 -4.9144 6.6872 -2.5708 0.6009 4.2747 -0.1156 5.8125 4.9964 -1.0669 0.2978 3.1931 -2.1195 5.6837 1.7768 0.6551 3.1203 -2.5680 3.3743 -1.0521 5.1684 -1.9360 3.2922 6.1471 -1.1933 2.4116 -3.1526 -1.6911 -1.4110 -1.7241 -1.9338 -1.4868 2.8052 -1.4185 3.0186 -3.5955 4.1139 -2.9863 -1.3380 -0.9337 0.7324 0.4390 -2.0282 -0.4768 -0.5009 -0.5998 1.7303 1.3576 -1.6394 0.5751 -4.1745 -0.6281 -3.4852 -4.5141 0.3937 -4.2086 -4.5577 2.6328 -4.5407 -3.1342 0.7232 -1.7285 4.0265 -1.0269 3.6795 5.8611 -1.5738 0.9961 3.7683 -1.1840 5.1483 -4.2732 3.8518 -4.1698 1.8653 -0.4778 2.6564 -3.1623 3.1465 -2.1004 -3.4525 -0.4472 -2.1809 -0.8627 -1.6771 -0.4346 0.8987 -0.9783 1.6522 -4.1467 1.6213 -3.6969 -3.4918 1.7674 -2.5347
-3.9288 4.6242 -5.4299 8.3517 -1.7655 2.3420 4.3796 -0.1128 5.2002 7.2805 0.1235 3.0405 2.9958 -1.9247 5.1897 2.3506 0.6703 1.6798 -4.2535 3.5317 -0.9204 5.1155 -2.1258 2.8570 6.0766 -1.5813 1.8243 -3.9011 -1.5617 -0.9102 -2.6091 -2.2176 -0.9625 2.7949 -1.4722 2.4415 -4.0834 4.0252 -3.1723 -1.4970 -0.5773 0.5039 -0.4592 -2.6829 -0.0404 -0.3983 -0.1685 1.1632 0.7439 -2.2357 0.6350 -3.7950 -0.7658 -3.3419 -3.7603 0.1641 -4.2454 -3.8413 2.3525 -4.8084 -4.0066 0.7990 -1.4684 4.0153 -1.1244 3.1293 7.2672 -0.9678 2.4914 3.7127 -1.1306 4.5998 -3.9460 3.6145 -4.4918 2.0459 -0.5142 1.7898 -4.1201 3.1725 -2.0854 -3.9010 -0.4236 -1.8805 -1.5430 -1.8864 -0.1458 0.7681 -1.0334 1.2371 -3.8676 1.4520 -3.7632 -3.9869 1.7426 -2.4584
-6.1047 4.9458 -5.1566 7.8902 -2.0077 3.3880 4.7262 -2.4082 5.9183 8.0938 0.2578 3.2010 3.1487 -0.7637 5.9579 3.3693 -2.7038 1.3889 -2.7934 1.7738 -5.9465 5.0679 -0.3781 3.5101 6.0730 -0.8492 2.4855 -2.8676 -1.0777 -1.6743 -2.4956 -0.7776 -0.3041 2.8501 -1.3314 3.1804 -4.4494 3.3251 -5.5090 -0.1772 -1.5662 -0.5675 -1.1010 -1.1073 1.6082 1.0400 -1.7818 -0.0362 0.2005 -1.3779 2.1937 -4.6725 0.7340 -1.4741 -5.3251 1.7633 -1.9156 -5.6995 3.3017 -3.5186 -3.2294 0.5586 -3.4454 4.1195 -1.5047 3.8505 7.4458 -0.7689 3.0679 3.9012 -1.4991 5.3374 -5.4352 3.8403 -4.6773 2.5860 -1.9641 1.9806 -3.6607 2.2290 -5.2084 -3.5513 0.1175 -2.2694 -1.3056 -1.1789 0.2756 1.2516 -1.6458 1.3981 -4.9379 2.2081 -3.1611 -3.9577 1.6371 -3.8781
-3.8477 5.1760 -5.0581 7.4230 0.7901 1.9237 4.4447 -2.4415 5.8300 6.0490 -0.5955 0.7419 2.7903 -0.8768 5.9272 3.2951 -2.2785 1.1665 -6.1745 2.5157 -2.0228 4.7029 -0.2352 3.5011 6.1018 -0.6929 3.1552 -3.1621 -1.6752 -1.7014 -2.8621 -1.4564 -0.2965 2.5595 -1.3329 3.1432 -4.9800 3.8050 -3.5255 -0.4346 -1.5845 -0.6160 -1.4026 -1.8338 1.5729 0.8070 -1.5747 -0.1030 -0.0594 -1.8811 2.1314 -2.1222 -0.0412 -3.3403 -2.0763 1.0821 -3.9841 -2.9582 3.0784 -4.4798 -4.2220 0.4798 -2.1864 3.8395 -1.4395 3.8051 6.4836 -0.1784 1.8044 3.5995 -1.5289 5.2854 -3.8863 3.9868 -4.3636 2.3935 -1.8158 1.8618 -5.2007 2.6787 -2.7503 -3.2414 -0.3457 -2.3842 -1.6084 -1.6797 0.2472 1.0074 -1.6944 1.3324 -3.1261 1.9359 -3.7294 -4.1321 1.6540 -2.8881
-5.4250 4.9435 -4.6361 7.6608 -0.7480 3.6285 4.9342 0.8676 3.7989 7.6155 -2.5001 5.0898 3.1056 -0.1397 4.7138 3.1374 0.0869 0.5422 -1.6339 2.3289 -3.9792 4.8931 -2.3784 3.5298 6.3155 -2.5739 3.0572 -3.4487 -1.7364 -1.4487 -2.9516 -1.4194 -0.1219 3.0451 -1.5190 2.2104 -3.5468 3.5913 -4.2829 -0.6231 -1.1436 -0.8560 -1.1565 -1.5735 1.4547 0.6854 -1.0306 -0.5691 0.2467 -1.3976 1.7820 -5.3999 -0.1767 -1.9539 -5.9077 0.9160 -2.4340 -5.6539 2.8841 -3.5127 -3.1219 0.3297 -2.6983 4.2904 -1.1702 2.8514 7.2503 -1.9668 4.0534 4.0090 -0.1210 3.8919 -4.9142 3.7724 -4.1189 2.5353 -0.7879 1.1586 -2.8427 2.4855 -3.8443 -3.9300 -0.4661 -2.0729 -1.6036 -1.4280 0.1901 1.1405 -1.1590 0.8050 -5.0064 1.7548 -3.0554 -3.6989 1.4756 -3.1736
-5.8278 4.9492 -3.6775 4.9317 -1.3663 0.7060 4.3562 0.3110 5.8887 5.6223 -3.5186 1.0152 2.9524 -1.4735 6.0861 2.2483 0.9330 2.8068 -1.8403 2.9091 -4.9288 4.9967 -2.1489 3.8122 6.0085 -1.8562 2.7259 -1.9506 -1.5589 -2.4721 -1.8747 -1.9131 -1.0677 2.8064 -1.2593 3.2821 -3.8402 3.8752 -4.2895 -0.0825 -0.3614 -0.4475 -0.4348 -2.4038 0.7804 0.8588 0.0394 0.4246 0.5512 -1.9593 1.7503 -4.1288 -0.2986 -1.9310 -4.9183 0.7254 -2.0345 -5.3603 2.7855 -2.8641 -2.4126 0.6336 -3.4071 4.0472 -0.9835 3.9660 5.5050 -2.3694 1.4133 3.7073 -0.7834 5.4172 -5.0315 3.8282 -3.5774 2.1241 -0.2724 2.6066 -2.8982 2.8642 -4.3104 -2.7985 -0.3340 -2.6380 -0.7757 -1.6358 -0.2760 1.1929 -0.7906 1.5698 -4.4556 1.7425 -2.8429 -3.2788 1.6907 -3.4863
-3.4558 4.9864 -5.5587 5.3602 -0.0296 0.0226 4.6057 -1.7979 5.8970 3.8448 1.0913 1.3077 4.3907 -3.6827 4.6328 1.3775 -1.0573 4.2757 -5.1365 3.4397 -1.5068 5.3716 -1.4447 2.7221 5.7168 -0.0228 2.3410 -3.2520 -1.2907 -1.1575 -1.9539 -1.9335 -1.1216 3.0062 -1.9368 2.8904 -4.2716 4.1652 -3.5242 -1.3384 -0.9565 1.0556 -0.0050 -2.6832 0.0272 -0.4311 -0.7990 2.0363 0.9546 -2.5496 1.1060 -2.4798 -0.2867 -3.3990 -2.3837 0.6911 -4.2455 -2.9088 2.7992 -4.8685 -3.8384 0.9750 -1.7999 4.1608 -1.4775 3.6253 4.8558 0.4138 1.1983 4.3937 -2.4653 4.7340 -3.5152 3.9374 -4.6664 1.7345 -1.4952 3.1854 -4.4561 3.2456 -2.5087 -3.2119 -0.1202 -2.0922 -1.1133 -1.9151 -0.0248 0.7816 -1.6033 2.0470 -3.0560 1.8402 -3.8872 -3.7471 1.9627 -2.7433
-3.4101 4.6934 -5.6018 3.8384 1.8269 2.6153 6.0575 -3.3145 2.6119 4.1394 2.1861 4.8492 4.2957 -3.9372 3.9175 3.1774 -2.2887 0.4169 -2.3995 0.1633 -5.2979 4.6509 -0.8384 4.1481 5.3520 0.4308 3.7229 -3.7909 -1.0377 -0.5214 -3.0030 -0.7306 0.6582 2.9773 -1.7731 2.6618 -2.9275 2.4110 -5.4023 -0.7915 -1.1704 -0.2876 -1.2180 -1.4974 2.0613 0.5270 -1.3540 -0.1063 0.2000 -1.7487 2.2558 -4.3228 1.4395 -0.9107 -4.3420 2.5105 -1.6417 -3.8970 3.5588 -3.5934 -3.3309 0.0353 -2.6555 4.3923 -1.7078 2.9409 4.3867 1.5663 3.8261 4.8680 -3.1044 3.2311 -3.4340 3.5624 -4.8138 2.5015 -1.9301 1.3783 -2.8519 1.1788 -4.7798 -3.7708 0.1437 -1.4421 -1.7160 -1.2010 0.8421 1.0536 -1.6207 1.2229 -3.8419 2.3564 -2.9176 -3.3700 1.1915 -3.3883
-2.3538 4.1767 -5.5959 5.0945 2.7577 4.1523 5.8761 -2.6404 2.0844 6.1714 0.7696 4.4519 5.0578 -2.0239 0.0478 2.1446 -3.3700 2.7477 -3.2444 4.0305 -1.0341 4.3264 0.2089 2.0766 3.9910 0.8360 3.4098 -4.2452 -0.8889 -0.1624 -3.3894 -2.0582 -0.1740 2.6998 -1.5114 1.4799 -2.8016 4.0503 -3.3027 -1.4268 -0.9350 0.7978 -1.6308 -3.3388 0.8015 -0.1687 -1.0054 1.2697 -0.2663 -3.4256 1.2856 -3.7962 -0.6060 -2.6783 -3.4501 0.1022 -3.7086 -2.9030 2.1025 -4.6173 -3.6777 1.2702 -1.1090 3.9848 -1.2650 2.0953 5.2189 1.4131 4.0389 5.0003 -2.0014 1.2683 -2.6930 3.3872 -4.5180 1.8338 -2.4598 1.9847 -3.1314 3.4444 -2.1054 -3.8810 0.0071 -1.3052 -2.1993 -2.1470 0.5241 0.4488 -2.3027 1.4779 -3.2358 1.4404 -3.4526 -3.3537 1.9830 -2.2307
-6.1318 4.9611 -3.7650 7.6858 -3.7664 3.7047 5.0054 0.8953 4.5539 7.7309 -1.5202 3.3082 3.1452 -0.0905 5.4289 2.6037 0.9369 1.8607 -2.5993 2.4236 -5.4101 4.7594 -2.2470 3.8800 5.7303 -2.7981 2.8622 -2.5450 -1.6756 -2.3803 -2.3069 -1.9093 -0.9695 2.8543 -1.1616 2.8057 -4.3723 3.6414 -4.5646 -0.2483 -0.5686 -0.8362 -0.7797 -2.2146 0.8405 0.8333 -0.1688 -0.1435 0.3624 -1.7608 1.6143 -4.5024 -0.1696 -1.6449 -5.2242 0.9035 -1.7455 -5.6702 2.8789 -2.7578 -3.0293 0.4154 -3.5107 4.1623 -0.9473 3.3866 7.1372 -2.5878 3.3242 4.0100 -0.0275 4.5683 -5.4098 3.7919 -3.6540 2.2708 -0.2419 1.9573 -3.5225 2.5528 -4.6131 -3.3299 -0.4114 -2.5606 -1.1081 -1.6386 -0.3353 1.1609 -0.7922 1.1303 -4.8510 1.7675 -2.7537 -3.8211 1.5294 -3.5808
-5.7551 5.0284 -4.5912 6.6445 -2.4716 1.1491 3.9000 -0.8393 6.4819 5.5398 -0.4752 1.1061 2.9909 -2.8323 5.8480 1.8086 0.3222 3.7500 -4.0525 0.9738 -6.1156 5.2636 -2.2283 3.8409 6.3327 -1.3751 3.1966 -2.3894 -1.2587 -1.7889 -0.9523 -1.0542 -1.7544 2.9694 -1.6324 3.3134 -4.8868 2.9734 -5.3101 -0.8655 -0.6671 0.6620 1.0743 -1.4544 -0.5338 -0.1696 -0.5855 1.8079 1.8476 -1.3239 0.6897 -3.3590 1.0188 -1.2027 -3.9553 2.1308 -1.4982 -4.8459 3.5235 -3.0248 -3.3228 0.1976 -3.5112 4.0681 -1.3851 4.2169 6.1131 -1.3636 1.7177 3.5869 -1.8001 5.5774 -5.1528 3.8355 -4.2538 2.0405 -0.6532 3.0411 -4.2857 1.7338 -5.1818 -3.0287 0.0065 -2.2638 -0.2320 -1.1170 -0.5751 1.2418 -0.9241 1.8224 -4.2350 2.3016 -2.8368 -3.9335 1.3949 -3.7790
-5.1941 5.1802 -3.1969 3.8847 -4.3569 3.9023 5.3847 1.6146 3.7543 4.5445 -3.4799 1.9019 3.2652 1.5602 4.5920 3.6285 0.1591 0.6120 -1.9013 2.3373 -4.8405 4.3243 -1.3886 4.4272 5.2777 -2.4706 3.9660 -2.5903 -1.9590 -2.1848 -2.1415 -2.1598 -0.8182 2.8751 -0.4598 2.7076 -3.5607 3.7095 -3.9997 -0.1881 -0.6962 -0.9444 -0.2630 -2.5105 0.6353 0.9159 -0.1925 -0.3699 0.9691 -2.0099 1.2249 -4.3687 -0.2693 -1.4340 -4.9464 0.8911 -1.4879 -5.0702 2.9834 -2.3483 -2.7202 0.2597 -3.1656 4.1583 -0.3346 3.3576 4.5418 -3.4653 3.1238 4.1816 1.0307 3.9814 -4.6334 3.9220 -3.1440 2.7775 -0.3468 1.3387 -2.8541 2.5262 -4.0919 -3.1898 -0.5927 -2.3120 -0.8528 -1.8767 -0.4008 1.4987 -0.8544 0.7833 -4.3996 1.7771 -2.3930 -3.3534 1.4723 -3.1764
-3.7091 5.1497 -5.5818 4.9545 1.7452 1.4638 5.1852 -3.0213 5.4276 3.2114 1.2798 2.8605 4.9715 -4.1261 3.4456 1.5275 -1.7613 4.3373 -5.7312 1.0025 -4.9580 5.3900 -1.0403 2.8947 5.4122 0.4077 3.3302 -3.1411 -0.9046 -0.9287 -1.8878 -1.6250 -1.0623 3.2024 -2.0653 2.7689 -4.6955 3.0519 -5.2270 -1.1936 -0.9932 1.2136 0.1241 -2.5132 -0.1160 -0.2670 -0.9884 2.1873 1.0997 -2.5617 0.9573 -2.1183 1.3409 -1.5607 -2.1025 2.4506 -2.2284 -2.9186 3.7554 -3.8583 -3.9961 0.3842 -2.8143 4.3139 -1.7899 3.6442 4.3886 1.1722 2.5520 4.8497 -3.1116 4.1153 -3.7370 3.9835 -4.8478 1.9007 -1.8716 3.1729 -4.8794 1.8193 -4.6232 -3.1288 0.2670 -1.8574 -0.9890 -1.7564 -0.0168 0.9403 -1.7832 2.0433 -3.0479 2.5377 -3.2264 -3.9290 1.5654 -3.5073
-2.9913 3.9510 -6.0609 3.9069 2.3746 4.0799 6.1374 -2.9897 1.6658 2.6742 0.5143 4.5559 5.0943 -2.0299 -0.1185 2.4446 -3.5692 2.6449 -1.7446 3.9234 -1.5815 4.8376 -0.0753 2.3044 4.9427 0.2973 3.7657 -3.8221 -0.3897 0.1959 -3.0675 -1.6173 0.0542 3.0322 -1.5521 1.6673 -2.3844 3.8881 -3.8020 -1.0626 -0.7282 1.1869 -1.3084 -3.0807 0.7010 0.1850 -0.9218 1.6537 0.0454 -3.2940 1.1667 -4.4296 -0.1816 -2.2793 -4.3796 0.4173 -3.4287 -3.6883 2.1516 -4.7058 -3.0378 1.4811 -1.1379 4.3904 -1.5114 2.1528 3.7088 1.0383 4.1713 5.2186 -2.1758 1.0885 -3.0513 3.2809 -4.8578 2.1514 -2.5384 2.0477 -2.3200 3.3803 -2.5184 -3.7068 0.3746 -1.0826 -1.8530 -1.8471 0.6718 0.7683 -2.2509 1.6071 -3.6567 1.5921 -3.4444 -3.0339 2.0885 -2.3637
-4.6486 3.8690 -6.7625 5.3767 0.7566 0.8463 5.2636 -3.3412 5.3501 4.0229 1.1849 2.6329 4.6254 -4.5495 3.5256 1.7686 -1.6270 4.5097 -2.7103 4.4901 -2.5786 5.5607 -1.6945 2.6148 5.9398 -0.2555 2.8833 -3.1937 -0.1276 -0.3874 -2.0451 -0.9879 -0.5902 3.2073 -2.2346 2.8020 -3.6802 4.1322 -4.6461 -1.0805 -0.4431 1.6142 -0.1197 -2.1467 0.2032 -0.0878 -0.5826 2.5121 0.9249 -2.3377 1.1890 -4.1961 -0.2394 -2.7290 -4.5144 0.2796 -3.8737 -4.5703 2.0474 -5.2715 -3.1710 1.8116 -1.8649 4.4431 -2.1210 3.5372 4.9980 0.6378 2.1407 4.7668 -3.4778 4.0947 -4.3136 3.2950 -5.5552 2.0070 -1.7964 3.3176 -3.2593 3.7477 -3.3860 -3.4817 0.5674 -1.6796 -1.0973 -1.2351 0.3848 0.9746 -1.5477 2.2768 -4.1683 1.6051 -4.0283 -3.5414 2.3211 -3.0820
-5.0503 3.9801 -6.6766 4.3287 0.9774 2.4104 5.0830 -3.3165 5.6442 5.9231 0.5723 0.8290 4.4085 -4.6053 3.8899 1.8121 -1.4008 4.5003 -3.0505 4.5182 -2.5106 5.6484 -1.8856 2.8242 6.0843 -0.4494 3.0108 -3.1009 -0.2419 -0.5721 -1.7805 -0.8118 -0.7712 3.2520 -2.2508 2.9042 -4.0405 4.1978 -4.5742 -0.8811 -0.2637 1.4509 -0.0138 -2.1178 0.1836 0.0783 -0.4121 2.3833 0.9968 -2.3138 1.2093 -4.1587 -0.2997 -2.8925 -4.5478 0.2537 -3.9992 -4.7763 2.0864 -5.2996 -3.2817 1.7774 -1.9372 4.4534 -2.1768 3.7018 5.4627 0.3989 1.9472 4.6330 -3.5079 4.3780 -4.6320 3.3654 -5.5155 2.0673 -1.6937 3.3351 -3.5574 3.7790 -3.3476 -3.4806 0.5024 -1.8159 -0.9319 -1.1320 0.2756 1.0804 -1.4581 2.2444 -4.3101 1.6089 -4.0909 -3.7179 2.3199 -3.1186
-5.4211 5.0887 -3.6697 4.0326 -3.6837 3.0418 4.7252 1.7072 4.2646 6.2328 -4.2316 2.7848 4.8019 1.8970 1.9934 1.5593 -0.9024 3.5102 -3.0501 2.8693 -0.3427 5.5136 -1.0539 2.7812 5.6179 -2.1457 3.8222 -2.8021 -1.9253 -2.0457 -1.3519 -1.8747 -2.1051 3.2772 -0.4437 2.0272 -4.2274 3.9301 -2.0260 -1.0942 -1.1447 0.2324 0.7621 -2.0623 -0.9978 -0.2927 -0.8070 1.2577 1.6230 -1.7650 0.1334 -4.0478 -0.5366 -3.7887 -4.5642 0.5728 -4.2218 -4.9749 2.7889 -3.9439 -3.1979 0.4524 -1.7188 4.2760 -0.2296 3.0452 5.3632 -3.4598 3.1593 4.6260 1.2271 2.9997 -4.8832 3.8911 -3.2495 1.9952 -0.8201 2.3654 -3.6226 2.8432 -1.4270 -3.3298 -0.5926 -2.4703 -0.5527 -1.7579 -0.9796 1.1294 -1.0972 1.1917 -4.3869 1.6657 -3.3974 -3.7360 1.6001 -2.2258
-5.2755 5.2030 -3.7215 3.7023 -3.7426 2.9280 6.1839 1.1154 3.0057 2.9830 -3.8865 5.0892 4.1835 1.9069 3.7610 4.0252 -0.6791 0.4231 -2.4628 1.9234 -5.4437 4.3541 -1.0959 4.5838 4.8867 -2.5118 4.5272 -2.6264 -1.7607 -1.9160 -2.1854 -1.8399 -0.5362 3.1806 -0.4134 2.5595 -3.8779 3.5181 -4.5512 0.0552 -0.9583 -0.9997 -0.4109 -2.1453 1.0425 1.2742 -0.6060 -0.5572 0.9241 -1.8148 1.5089 -4.1911 0.1329 -1.1635 -4.7413 1.2971 -1.3167 -5.0080 3.1958 -2.5143 -2.9215 0.2434 -3.2550 4.4619 -0.4469 3.2232 3.7516 -3.4454 4.2485 4.8862 0.9841 3.3770 -4.7370 3.9460 -3.5475 3.0876 -0.7006 1.2153 -3.2264 2.2997 -4.5609 -3.2137 -0.4077 -2.1745 -0.8605 -1.7239 -0.1584 1.7107 -1.0164 0.7654 -4.3819 1.9662 -2.4674 -3.5304 1.4632 -3.3747
-5.4330 4.5195 -6.2722 6.0351 1.5923 2.3614 4.9815 -3.7314 5.4668 3.9748 1.2100 3.2650 4.9936 -4.4352 3.2986 1.6875 -2.7851 4.1127 -4.5356 0.0116 -5.5470 5.7421 -1.4047 3.3500 5.8844 -0.0563 4.0177 -2.7734 -0.0323 -0.7027 -1.3742 -0.3310 -0.9443 3.4841 -2.1055 2.8233 -4.9683 2.2609 -5.8577 -0.9470 -0.8729 1.4256 0.7090 -1.2923 -0.2747 -0.0970 -1.2626 2.3932 1.6142 -1.7594 0.7583 -3.2901 2.3695 -1.3611 -3.7634 3.2718 -2.1630 -4.5988 3.8570 -4.1714 -3.6564 0.5145 -2.9179 4.5023 -2.1138 3.8484 5.1694 0.9653 3.1923 4.8507 -3.5495 4.1278 -4.9860 3.5659 -5.3831 2.1433 -2.2481 3.1069 -4.5522 1.1633 -5.1250 -3.2440 0.9201 -1.7572 -0.5336 -0.8573 0.0228 1.2491 -1.6960 2.0520 -4.1626 2.8026 -3.3962 -4.1056 1.5088 -3.7492
-6.1112 4.7716 -5.3095 7.0266 -0.2388 6.4521 6.4321 -1.9011 1.8353 7.6732 -1.6856 4.8125 5.3676 0.0305 1.2562 2.8551 -3.3128 1.5956 -2.0482 2.6143 -4.6009 4.7293 -0.5650 4.2335 5.3311 -1.4105 5.3350 -3.2756 -1.1345 -1.3282 -2.6970 -0.6310 -0.0967 3.1424 -1.1852 2.4749 -4.0885 3.6539 -4.9219 -0.6007 -1.8996 -0.4151 -1.0021 -0.6226 1.5876 0.6408 -2.2163 -0.0010 0.3163 -0.9997 2.0641 -5.3806 0.2114 -1.8318 -6.0309 1.1465 -2.4529 -6.0537 2.9099 -3.8664 -3.2250 0.7689 -2.8516 4.4710 -1.4084 3.0027 6.7976 -1.1358 5.4634 5.4374 -0.9838 1.9334 -5.4507 3.7466 -4.6664 2.4490 -2.1723 1.8011 -3.2508 2.6990 -4.3755 -3.9062 0.0135 -2.0495 -1.4679 -1.0411 0.3918 1.1335 -1.7191 1.2746 -5.2658 1.9383 -3.2834 -3.9481 1.7586 -3.4630
-5.5241 4.7633 -5.9879 7.3278 0.3414 1.8758 4.5715 -2.7400 6.0889 5.6137 1.1346 3.1575 4.1447 -4.3524 4.5339 1.8006 -0.7859 4.2182 -6.1615 0.2673 -4.9604 5.6393 -2.0369 3.0867 6.6032 -1.0111 3.6416 -2.8104 -0.4533 -1.0825 -1.4143 -0.8109 -1.2728 3.2076 -2.1710 3.0116 -5.8065 2.5012 -5.4314 -1.0715 -1.0907 1.1504 0.7964 -1.0724 -0.3679 -0.2566 -1.2748 2.2044 1.6889 -1.2307 0.7696 -2.5471 1.9206 -1.9605 -2.9315 2.9297 -2.6757 -4.2228 3.7999 -4.2807 -4.1445 0.3527 -2.9624 4.3524 -2.0201 3.8781 6.4336 0.2695 2.8900 4.3336 -3.1820 4.8283 -5.1452 3.7004 -5.1968 2.0853 -1.3896 3.1872 -5.5649 1.3184 -4.7512 -3.2083 0.5765 -2.0914 -0.5413 -0.9789 -0.2078 1.1806 -1.3658 2.0079 -3.9332 2.6503 -3.5785 -4.4956 1.4408 -3.7221
-6.2352 4.8801 -4.9012 7.8612 -1.2658 5.0443 4.5002 -0.4839 5.6935 8.6559 -2.6847 3.4450 3.3421 -2.4052 5.2845 2.1881 0.6355 3.0138 -5.4829 0.3779 -5.8171 5.5090 -2.0669 3.0852 6.7758 -1.2490 2.9680 -2.9196 -1.1908 -1.6134 -1.4809 -1.1441 -1.8075 3.1912 -1.4197 2.6471 -5.8311 2.6068 -5.3154 -0.9782 -0.4388 0.4872 0.6649 -1.6047 -0.8328 -0.1041 -0.2807 1.4957 1.6301 -1.4019 0.2362 -3.4274 1.2899 -1.3801 -3.9608 2.4014 -1.7772 -5.0882 3.5817 -3.3098 -4.1238 0.0205 -3.3597 4.3584 -1.1594 3.4600 7.8545 -1.8413 3.8180 3.9835 -1.4447 4.8867 -5.6944 3.6924 -4.4589 2.2577 -0.4314 2.4083 -5.3534 1.3326 -5.0582 -3.5157 0.0422 -2.2146 -0.5937 -1.1242 -0.7445 1.2538 -0.7841 1.3706 -4.5830 2.3370 -3.0042 -4.6542 1.2235 -3.7494
-6.2046 4.9426 -3.9331 8.1072 -2.9259 3.2738 4.6802 0.2665 5.3945 7.5041 -0.7467 2.9694 2.9797 -1.2051 5.7679 2.6684 0.8624 2.2559 -6.7963 0.4084 -3.0652 4.9325 -2.4519 3.6835 5.9214 -2.5181 2.5419 -1.9432 -1.3273 -2.7753 -1.9297 -1.6292 -1.3545 2.8911 -1.3416 2.9238 -6.4504 2.6557 -3.4801 0.0868 -0.3241 -0.8464 -0.6155 -2.1199 0.5926 1.0939 -0.0066 -0.0146 0.4487 -1.7606 1.5173 -1.8957 1.1628 -3.2617 -2.4525 2.3163 -3.4586 -4.2993 3.5837 -3.6685 -4.0146 -0.0323 -2.9776 4.1416 -1.1645 3.6268 7.2351 -1.9385 2.9603 3.8347 -0.7321 5.0340 -5.5954 3.7295 -3.6937 2.3406 -0.3194 2.1778 -6.0384 1.3575 -3.2338 -2.7185 -0.0637 -2.9863 -0.8184 -1.4320 -0.5515 1.2968 -0.7614 1.2117 -3.8300 2.3094 -3.4262 -4.5604 1.2058 -3.2040
-6.6983 4.4762 -4.3382 5.9784 -4.7883 2.8941 5.4923 0.7411 4.5864 6.3626 -2.8703 1.7174 3.4693 0.2536 5.5190 3.3892 0.7830 1.5390 -2.6823 3.7280 -2.1140 4.5319 -2.3634 4.2602 5.9752 -2.7811 4.0949 -2.1430 -1.3612 -2.3686 -2.0533 -1.3646 -0.9209 3.0048 -0.9791 2.9918 -4.6850 4.0498 -3.2225 0.3000 -0.6343 -0.9504 -0.7560 -1.3996 1.0803 1.4538 -0.3998 -0.3003 0.4652 -1.0947 1.7980 -4.3419 -0.7336 -3.4838 -5.2099 0.1249 -3.9226 -5.9195 2.2625 -4.1257 -2.8481 0.9674 -2.5496 4.3032 -1.0161 3.6162 6.1273 -3.4489 2.7673 4.3323 0.0434 4.6807 -5.7801 3.5422 -3.9094 2.7389 -0.1975 1.8889 -3.6507 3.2828 -2.7208 -3.0980 -0.2843 -2.7700 -0.8642 -1.1680 -0.2440 1.5430 -0.6456 1.1295 -4.9211 1.4437 -3.6391 -3.8159 1.8315 -2.9838
-4.2833 2.9877 -6.9159 6.5062 1.4832 4.6171 5.6075 -3.8560 2.3235 7.8144 -0.3771 4.8095 3.9324 -4.0201 3.8616 3.0934 -0.1344 0.8423 -3.5819 4.3425 -2.5176 4.8923 -1.0476 3.7258 6.0642 -0.2847 3.1551 -3.9822 -0.0407 0.1190 -3.0690 -1.1687 0.1504 2.8986 -1.7238 2.5171 -3.9326 3.6230 -4.6861 -1.0656 0.1797 0.5889 -1.1200 -2.1748 1.1036 0.2236 0.2640 0.9603 0.2891 -2.1065 1.4448 -4.4621 -0.5332 -2.3475 -4.5031 -0.1987 -3.5989 -4.3854 1.3753 -5.2043 -3.8834 1.7149 -1.5651 4.3162 -1.9411 2.6553 6.8943 0.2297 4.2831 4.5523 -3.3754 3.0298 -4.2084 2.6078 -5.5932 2.4124 -0.8886 1.5327 -3.8137 3.4441 -3.3194 -4.0806 0.4647 -1.2871 -1.7880 -1.0882 0.6631 0.9341 -0.9271 1.3959 -4.2747 1.1365 -3.8510 -3.9971 2.0335 -2.8928
-6.0286 4.9710 -4.8982 7.9687 -0.5098 3.8077 4.2495 -0.5493 5.9667 8.5045 -2.5537 2.9470 3.0900 -2.4731 5.5741 2.1554 0.5585 3.1421 -6.6421 0.3603 -4.6863 5.3468 -2.2571 3.4418 6.3367 -1.5830 2.5200 -2.7332 -1.1623 -1.7022 -1.2880 -1.2311 -1.8396 3.0655 -1.5577 2.9161 -6.2932 2.6439 -4.7646 -0.8888 -0.4618 0.4538 0.7945 -1.7085 -0.7381 -0.0813 -0.3213 1.5179 1.6931 -1.5192 0.3894 -2.5300 1.3631 -2.0839 -2.9707 2.4964 -2.5291 -4.4835 3.6804 -3.6809 -4.3204 0.0383 -3.1071 4.2131 -1.3089 3.7575 7.7079 -1.6425 3.1121 3.7703 -1.5404 5.1740 -5.5561 3.7694 -4.4171 2.2084 -0.5319 2.5787 -5.9816 1.3490 -4.3856 -3.2494 0.0724 -2.3761 -0.4513 -1.1885 -0.7364 1.2612 -0.8752 1.4889 -4.1196 2.4124 -3.2827 -4.7480 1.2601 -3.5598
-5.5380 4.3740 -5.8889 8.3577 -3.5353 3.5811 4.9282 0.3340 4.8779 7.8521 -1.7253 4.8738 3.2666 -1.1921 5.2109 2.9641 0.8304 1.6489 -5.8469 3.3702 -1.3560 5.3014 -2.3706 3.1842 6.7240 -2.0739 2.7639 -3.4185 -1.1367 -0.9926 -2.0762 -1.6228 -1.2540 3.2189 -1.3438 2.4086 -5.6634 3.8251 -3.6143 -0.9056 -0.1244 0.2897 0.0037 -2.2852 -0.2693 0.1932 0.1899 0.9983 1.2125 -1.9368 0.4578 -3.4437 -0.4246 -3.4592 -3.6910 0.4222 -4.4086 -4.5917 2.3622 -5.1096 -4.4199 0.9682 -1.6962 4.4686 -1.1095 3.0989 7.6733 -2.4032 3.8733 4.1207 -0.6877 4.4977 -5.2360 3.4750 -4.8887 2.5759 -0.3327 1.7225 -5.4569 3.0640 -2.4777 -3.7864 -0.1138 -2.0253 -1.0201 -1.4134 -0.3877 1.2962 -0.7533 1.0919 -4.3560 1.5615 -4.0114 -4.7069 1.8087 -2.7400
-4.7804 3.4994 -6.4627 3.9058 0.4595 6.2758 6.8098 -2.2889 1.4819 2.5649 -1.1333 5.3408 5.7546 -0.5811 0.4042 3.1418 -3.4889 1.0454 -1.8332 3.9300 -2.8866 5.0473 -0.4818 3.4660 4.9275 -1.0833 4.8468 -3.2920 0.1906 0.2884 -2.6323 -1.0815 0.0649 3.5031 -1.3372 1.8213 -3.3143 3.6726 -4.6435 -0.3535 -0.3218 0.5384 -1.0001 -2.6144 0.9097 0.9364 -0.6100 0.7846 0.3839 -2.9286 1.2129 -4.8248 0.1509 -1.7518 -5.2040 0.5757 -2.9169 -4.9769 2.0096 -4.6480 -2.9894 1.7602 -1.5486 4.7983 -1.5466 2.4225 3.6599 -0.6104 5.4828 5.8097 -1.3865 1.3215 -4.3876 3.0165 -5.2328 2.7340 -2.3672 1.3300 -2.7703 3.3424 -3.4162 -3.6466 0.7642 -1.0461 -1.3762 -1.3647 0.5664 1.3190 -1.9657 1.1371 -4.4749 1.6329 -3.4188 -3.4395 2.1873 -2.7694
-7.0436 4.2331 -4.1397 5.1800 -2.8242 1.1130 5.1782 0.3481 5.6916 4.9291 -4.8119 2.2057 3.1019 -0.5106 6.0710 3.2001 1.0271 2.5062 -2.4686 3.6404 -4.7278 4.8122 -2.5287 4.3225 5.8952 -2.9090 3.3377 -1.5633 -0.8771 -2.4961 -1.5397 -1.2022 -1.0835 3.0964 -1.1250 3.3466 -4.7459 3.8823 -4.4196 0.6094 -0.0896 -0.6322 -0.3114 -1.7058 0.8994 1.6303 0.1692 0.2055 0.7572 -1.3959 1.8298 -4.0725 -0.3750 -2.3033 -5.1168 0.3649 -2.5128 -6.0474 2.2539 -3.3325 -2.5210 1.1654 -3.4070 4.3485 -1.1133 4.0652 5.2782 -3.6417 2.1888 4.1051 -0.4216 5.3791 -5.9583 3.4074 -3.9369 2.7422 -0.1118 2.4829 -3.5397 3.2161 -4.3071 -2.7035 0.0591 -2.7585 -0.4192 -1.0682 -0.2851 1.7116 -0.5116 1.4880 -4.8726 1.5434 -3.1859 -3.6521 1.9126 -3.6050
-5.8087 4.5654 -5.7776 5.7675 -0.3224 1.2431 4.2335 -1.3402 6.4370 6.6669 -2.3633 0.7579 3.3163 -3.2848 5.6767 2.1780 0.2004 3.8497 -6.2057 2.6329 -1.5626 5.4574 -2.5103 3.6049 6.5287 -1.6023 3.0448 -2.4432 -0.8769 -1.5442 -0.9975 -0.7407 -1.5295 3.1455 -1.8213 3.2735 -5.9645 3.5641 -3.6640 -0.7574 -0.4561 0.8890 1.0313 -1.3890 -0.4301 0.0133 -0.4527 1.9905 1.8862 -1.3468 0.7448 -2.4462 0.3057 -3.8146 -2.8756 1.2006 -4.6477 -4.3125 2.8487 -5.1747 -4.0143 0.9246 -2.0372 4.3017 -1.6909 4.1291 6.3429 -1.5056 1.5647 3.8873 -2.2248 5.4690 -5.3183 3.6301 -4.8918 2.2777 -0.7651 3.0971 -5.6234 2.6979 -2.6400 -3.0225 0.1863 -2.4286 -0.2402 -0.9360 -0.3898 1.3882 -0.9169 1.9182 -3.9270 1.9636 -4.1895 -4.4653 1.8258 -2.9680
-6.9884 4.4038 -5.5028 7.9146 -1.8399 5.2134 4.6967 -2.0837 5.7702 9.0520 -1.1765 3.3518 4.2125 -3.6351 4.1711 1.6559 -0.9678 4.0324 -4.1418 0.8006 -6.2618 5.8406 -1.2607 2.9170 6.7946 -0.4104 3.7296 -2.8096 -0.6126 -1.4848 -1.4321 -0.1565 -1.4572 3.4183 -1.4426 2.6070 -5.5474 2.5845 -5.8334 -1.0422 -1.0183 0.8199 0.7845 -0.2766 -0.5624 -0.2044 -1.2738 1.8414 1.6895 -0.5044 0.5513 -4.3685 1.3893 -1.3367 -5.1584 2.2797 -1.8506 -6.0552 3.2902 -3.6495 -3.7399 0.4196 -3.4973 4.4795 -1.2870 3.5820 8.0398 -1.1820 4.0359 4.4329 -2.4793 4.4991 -6.1961 3.4268 -4.9394 2.1080 -1.1144 2.8990 -4.7102 1.5444 -5.4694 -3.6288 0.4109 -2.2053 -0.5431 -0.4952 -0.4507 1.2216 -1.0128 1.7055 -5.2226 2.2750 -3.2274 -4.5522 1.4045 -3.9978
-5.3697 4.8403 -5.2155 2.4961 -2.2790 5.2565 7.0421 -1.5045 1.7733 3.3645 -0.9065 6.8599 5.9965 0.4971 1.4598 3.7074 -2.6118 0.5629 -2.3174 1.3330 -5.3934 5.0135 -0.7237 4.1677 4.7930 -1.8447 5.1584 -3.1072 -1.1214 -0.9629 -2.3681 -0.6374 0.1885 3.6870 -0.9081 2.1293 -3.8546 3.0542 -5.2615 -0.1853 -1.4169 -0.6130 -0.5623 -0.9835 1.7249 1.1310 -1.5948 -0.4022 0.8497 -1.2223 1.9704 -4.7211 0.8506 -1.0864 -5.2374 1.8825 -1.6778 -5.3013 3.3087 -3.4258 -3.1367 0.3670 -2.8915 4.9376 -1.2643 2.7590 3.4991 -1.6030 5.8653 6.0194 -0.6286 1.9344 -4.8660 3.7231 -4.5842 3.1143 -1.7353 1.1856 -3.2117 1.9223 -4.7958 -3.6098 0.0632 -1.7245 -1.0826 -1.0555 0.4814 1.6781 -1.4537 0.9365 -4.6921 2.1839 -2.9076 -3.7061 1.4693 -3.4719
-6.4044 4.0588 -6.2675 5.8662 0.7088 5.1149 4.8950 -3.9480 5.1055 6.5467 1.1250 2.9762 4.6451 -4.6498 2.9505 1.9181 -1.6589 4.2354 -3.8265 0.2050 -5.8755 5.8907 -1.8005 2.8760 6.7383 -1.0939 3.9111 -2.7857 0.0493 -0.8259 -1.3729 0.3828 -0.8172 3.4879 -2.1056 2.5944 -5.1010 2.1272 -6.0182 -0.9571 -0.9487 1.2207 0.8590 0.0136 -0.0349 -0.1013 -1.4681 2.1203 1.7857 -0.5015 0.9574 -4.1661 2.1302 -1.3098 -4.8684 2.8958 -2.0857 -5.6232 3.4347 -4.1356 -3.5449 0.5673 -3.0917 4.6005 -2.2814 3.4977 6.3864 0.3592 3.9140 4.7066 -3.7521 3.7765 -5.7106 3.2225 -5.4197 2.2618 -1.6732 3.0564 -4.3598 1.1729 -5.3436 -3.4766 0.9041 -1.8413 -0.4730 -0.1748 0.0773 1.3297 -1.2517 1.9763 -4.8863 2.5204 -3.4116 -4.2601 1.4307 -3.8824
-3.9554 2.7328 -7.0883 6.3127 0.9963 2.5401 5.5585 -4.0139 2.6742 5.7701 1.5280 4.6922 3.6390 -4.2512 3.8808 2.9928 -2.2129 0.5284 -4.8501 4.1834 -2.7562 4.7988 -1.3484 4.2949 6.1764 -0.7682 4.0655 -3.7602 0.0039 0.0677 -2.6568 0.6528 0.7524 2.9307 -1.7811 2.8022 -4.3865 3.4186 -4.8880 -1.0706 -1.1566 0.2653 -0.6078 0.4718 1.9799 0.1274 -1.7375 0.4460 0.7068 -0.1222 2.1525 -3.3764 -0.5436 -2.3787 -3.3399 -0.2470 -3.6395 -3.6400 1.2288 -5.3056 -4.1419 1.6768 -1.6780 4.3237 -2.0664 3.0537 6.0503 0.7032 3.8361 4.4314 -3.5499 3.2702 -3.9781 2.4079 -5.7493 2.4252 -1.7626 1.5202 -4.4797 3.2921 -3.5129 -3.7768 0.4765 -1.3511 -1.4743 0.0025 1.0573 1.0525 -1.2037 1.4306 -3.7120 1.0447 -3.9415 -4.0895 1.9450 -3.0209
-5.5308 3.9359 -6.5763 5.8115 1.5407 5.1389 5.6146 -4.4320 3.4445 5.0796 1.1840 3.0063 3.6306 -4.2997 4.5601 3.5445 -2.5662 0.8036 -4.4618 -0.4176 -5.3277 4.9857 -1.4900 4.6360 6.1388 -0.5949 4.2427 -3.0242 0.1100 -0.4136 -1.8346 0.7219 0.1521 3.2346 -1.9992 3.0256 -4.9866 1.7598 -5.8970 -0.3757 -1.2376 -0.0202 -0.0023 0.4369 1.6712 0.7458 -1.8901 0.3328 1.2363 -0.2354 2.0278 -3.6941 2.4094 -1.3207 -4.1187 3.2019 -2.2542 -4.8212 3.5350 -4.3660 -3.7774 0.3994 -2.7180 4.5684 -2.3431 3.4612 5.6104 0.7865 4.0325 4.5159 -3.7786 3.8984 -5.1031 3.1033 -5.5644 2.8917 -2.0226 1.6908 -4.5648 0.7675 -5.0294 -3.4945 0.9382 -1.5727 -0.7843 -0.0155 0.6675 1.5869 -1.3722 1.3992 -4.3896 2.5898 -3.4584 -4.2315 1.2743 -3.6723
-5.9251 3.9289 -6.4424 5.4463 1.7090 3.9393 5.5889 -4.4296 3.9185 3.6921 0.4971 4.7543 5.4464 -4.0027 1.6833 1.9858 -3.0747 3.5686 -3.0110 0.3887 -5.6539 5.8378 -1.3083 3.2642 5.8717 -0.5114 4.5493 -2.8500 0.1856 -0.5025 -1.4941 0.6574 -0.2881 3.6682 -2.0013 2.3966 -4.4633 2.1539 -5.9921 -0.8033 -1.4313 0.8244 0.5687 0.5467 0.9233 0.1277 -2.1493 1.4792 1.5599 -0.2087 1.6693 -4.3734 2.0960 -1.1939 -5.0120 2.8061 -2.0704 -5.4575 3.3263 -4.2137 -3.2662 0.6820 -2.8604 4.7357 -2.3421 3.3095 4.8698 0.5927 4.4437 5.2867 -3.6578 2.8444 -5.2944 3.1502 -5.4961 2.3539 -2.2730 2.7145 -3.7405 1.2695 -5.2109 -3.4594 0.9795 -1.6132 -0.5818 -0.0213 0.5036 1.3744 -1.5227 1.8877 -4.7533 2.4787 -3.3841 -3.9288 1.4858 -3.7520
-4.6089 5.1926 -4.1416 2.8972 -3.1937 5.3075 6.4495 0.8329 2.2341 3.6456 -3.7711 3.2300 4.6028 1.9997 2.8877 3.9917 -1.2370 0.1736 -5.4516 2.3197 -0.5746 4.4467 -0.7657 4.3014 4.8846 -2.1908 4.5655 -2.7661 -1.8961 -1.8940 -2.3317 -1.8062 -0.5100 3.2814 -0.3826 2.1999 -4.9958 3.7135 -2.3622 -0.0110 -1.3031 -1.1323 -0.5840 -1.8733 1.1334 1.2545 -1.0242 -0.7793 0.7965 -1.6283 1.5169 -2.5317 -0.1682 -3.7304 -2.7309 0.9999 -4.2554 -3.6472 3.0465 -4.1693 -3.8842 0.2840 -1.7375 4.5775 -0.4306 2.8336 3.7597 -3.1319 4.2649 5.1702 0.9386 2.6740 -4.3855 3.9509 -3.5879 3.0932 -0.9532 0.9613 -4.9015 2.5301 -1.6501 -3.1138 -0.5279 -2.3928 -1.0003 -1.7158 -0.1413 1.6692 -1.1638 0.6048 -3.5169 1.8464 -3.5047 -4.0592 1.5087 -2.3251
-7.0761 3.9485 -5.1546 4.5803 1.3950 3.4139 4.5800 -3.8459 5.5884 5.9479 0.8556 1.6692 4.7524 -4.6456 3.4608 1.6631 -1.8021 4.4545 -5.5979 -0.3459 -4.1460 5.7103 -1.7565 3.2177 6.0602 -0.3828 3.7440 -0.9126 0.4858 -2.1517 -1.3290 -0.2556 -0.9763 3.3485 -2.2331 2.9285 -6.2919 1.8075 -4.6167 0.9458 -0.3031 0.0105 -0.9281 -1.3500 1.1046 1.7673 -0.6420 1.0239 -0.0461 -1.7488 2.1850 -1.9480 2.7210 -2.7822 -2.8916 3.4677 -3.2666 -4.9475 3.6844 -4.1765 -3.1581 0.6247 -3.1393 4.4449 -2.2664 3.8688 5.5440 0.6625 2.8055 4.6160 -3.7131 4.2387 -6.0606 3.1767 -4.6310 2.0918 -1.8114 3.3041 -5.3974 0.8640 -4.1439 -2.0963 1.2270 -2.7010 -0.4757 -0.6529 0.0406 1.2539 -1.4091 2.1464 -4.0149 2.7898 -3.6903 -4.1345 1.4543 -3.6294
-7.7891 2.2530 -5.1752 5.5966 -0.2338 1.5469 4.1949 -2.3050 6.6840 6.4549 -2.2432 0.8885 3.1129 -3.9659 5.5588 1.7487 -0.4023 4.4971 -3.3322 3.3350 -5.9749 5.2919 -2.7515 3.6692 6.2839 -1.6973 3.2347 -0.9527 1.4915 -1.7921 -0.5862 0.1362 -1.4161 2.9750 -2.0713 3.4742 -5.5290 2.7659 -5.5371 0.3304 0.8858 0.7477 0.6111 -1.3856 0.0018 0.9890 0.6266 1.8917 1.2794 -1.6867 1.2569 -3.4345 0.8976 -1.6447 -4.6559 0.9395 -2.0759 -6.1637 1.5824 -3.6090 -2.5026 2.0610 -3.5894 4.1161 -2.0989 4.3570 6.1293 -1.4601 1.7667 3.7359 -2.9149 5.5615 -6.4884 2.1737 -4.7256 2.0741 -1.0293 3.4925 -4.1717 2.7929 -5.2634 -2.3036 1.4904 -2.4410 0.1279 -0.1525 -0.2623 1.4937 -0.7107 2.1585 -4.8233 1.5762 -3.2858 -3.8129 2.1015 -3.9954
-6.0901 3.4818 -6.7930 5.4107 0.3526 2.4107 4.5259 -3.1982 6.2296 6.6048 -0.8460 0.8791 3.5743 -4.5801 4.6857 2.3526 -0.4476 4.3625 -5.9721 3.6938 -2.1450 5.6365 -2.7137 3.2244 6.5687 -1.5223 3.1962 -2.4775 0.0796 -0.9382 -1.0290 0.2094 -0.9695 3.2476 -2.2338 3.1978 -5.9881 3.5543 -4.4509 -0.6774 -0.1483 1.4320 1.0368 -0.7213 -0.1581 0.1227 -0.4751 2.4627 1.9261 -1.0322 0.9517 -2.6731 0.2223 -3.4785 -3.1869 0.6880 -4.5732 -4.6072 2.0667 -5.6330 -3.9510 1.7130 -2.0141 4.4084 -2.3893 4.0425 6.2172 -0.6642 2.0230 4.1113 -3.5227 4.9792 -5.5235 2.9949 -5.6343 2.4013 -1.1581 3.3617 -5.5441 3.2066 -3.1859 -3.0704 0.7662 -2.1335 -0.2213 -0.2744 0.0490 1.4764 -0.9440 2.2170 -4.1249 1.6816 -4.3992 -4.4848 2.1605 -3.1985
-6.6990 3.0063 -6.9338 8.5340 -1.9737 4.7172 4.8247 -3.5080 5.2139 8.7150 -0.0228 3.5483 3.4940 -1.7291 5.7257 2.5157 -3.2742 2.0746 -7.1112 2.8344 -2.2994 5.6914 -0.9205 3.5874 6.9412 -1.5808 3.0486 -2.8190 0.3557 -0.8793 -1.4456 0.8159 -0.7659 3.3588 -1.3100 2.9675 -6.8586 2.8987 -4.5957 -0.7993 -1.1516 0.5768 0.7426 0.6589 0.2004 0.1046 -1.8082 1.3267 1.7444 -0.0695 0.9602 -2.7585 0.7067 -3.4088 -3.2815 1.0891 -4.5307 -4.9626 2.0311 -5.6790 -4.5921 1.5739 -2.0338 4.5456 -1.9058 3.5371 8.1393 -1.0740 3.7847 4.2067 -2.3318 4.9377 -6.1244 2.6206 -5.7418 2.4857 -2.0524 2.1979 -6.4520 2.5982 -3.3064 -3.4528 0.9555 -2.0971 -0.4915 0.1527 -0.0092 1.4264 -1.2402 1.5416 -4.5044 1.7126 -4.4182 -5.1175 1.9425 -3.2472
-6.1989 4.0020 -6.3449 4.6510 1.3534 5.2707 6.0484 -4.3609 3.1749 3.1523 -0.3670 5.2534 6.2592 -3.0727 1.3049 2.2747 -3.1578 3.2442 -4.7031 -0.2981 -5.3807 5.8122 -1.1240 3.6821 5.5197 -0.8176 5.1356 -2.6239 0.2460 -0.6799 -1.2586 0.6992 -0.4623 3.9340 -1.8504 2.3053 -5.4325 1.8517 -5.8071 -0.4910 -1.4149 0.5395 0.7178 0.6291 0.9076 0.4580 -2.1287 1.1731 1.7279 -0.1275 1.6332 -3.4682 2.5189 -1.4777 -4.0918 3.2907 -2.3118 -5.1345 3.6096 -4.2790 -3.6730 0.5184 -2.8760 4.9721 -2.2890 3.2099 4.3014 0.0467 5.2216 5.8257 -3.2469 2.4338 -5.5728 3.1810 -5.4305 2.6270 -2.2432 2.5040 -4.8233 0.8736 -5.0395 -3.2543 1.0592 -1.7725 -0.3653 0.0309 0.3645 1.6351 -1.4674 1.7119 -4.5131 2.6779 -3.4719 -4.3122 1.3777 -3.7363
-5.6728 4.8919 -5.4138 4.4450 -1.0395 7.2090 7.0114 -1.7210 2.0516 4.2642 -2.9101 5.9136 6.1556 0.2799 1.3695 3.5427 -2.9904 1.1757 -7.1325 1.0728 -3.1874 4.9323 -0.3482 4.1630 5.6974 -1.0937 5.2345 -2.7054 -1.0419 -1.5921 -2.2373 -0.6947 -0.2624 3.7057 -0.8866 2.1290 -6.3590 2.9591 -4.2759 -0.0709 -1.8028 -0.6520 -0.4838 -0.5479 1.3631 1.2002 -2.0398 -0.2829 0.8694 -0.8483 1.7968 -2.1813 1.1565 -2.7539 -2.5118 2.2093 -3.4327 -4.0748 3.5001 -4.3908 -4.4882 0.3757 -2.4705 4.9054 -1.1547 2.8856 4.7256 -1.7989 6.1236 6.0614 -0.7531 2.0149 -5.3145 3.7784 -4.6853 3.0592 -1.8939 1.4447 -6.2076 1.7999 -3.5341 -3.2218 0.1907 -2.2602 -0.9588 -0.9918 0.1801 1.7002 -1.5187 0.9783 -3.8643 2.3594 -3.6467 -4.7909 1.5021 -3.1923

>  <OB_ATOM_TYPES> (1dhfA1)
N.pl3 O.co2 O.co2 O.co2 O.co2 O.2 O.2 C.3 C.3 C.3 N.pl3 N.am N.ar C.ar C.ar C.ar C.ar C.ar N.ar N.ar N.ar C.3 C.2 C.2 C.ar C.2 C.ar C.ar C.ar C.ar C.ar C.ar

>  <ENSEMBLE_RMSD> (1dhfA1)
1.225 1.262 1.963 2.046 2.133 2.161 2.246 2.248 2.267 2.343 2.360 2.387 2.418 2.427 2.455 2.498 2.516 2.521 2.537 2.577 2.637 2.648 2.718 2.771 2.827 2.836 2.875 2.897 2.931 2.932 2.932 2.944 2.947 3.000 3.011 3.040 3.045 3.081 3.104 3.118 3.129 3.139 3.174 3.175 3.252 3.306 3.328 3.505 3.520 3.581

$$$$
