
 OpenBabel03071213D

 40 44  0  0  0  0  0  0  0  0999 V2000
   -7.9810   17.6690   20.9750 N   0  0  0  0  0
  -11.4110   15.2210   34.6490 N   0  0  0  0  0
   -9.7860   19.6250   26.9240 O   0  0  0  0  0
  -11.8230   18.6470   28.5540 O   0  0  0  0  0
   -8.4080   14.2130   27.6200 O   0  0  0  0  0
   -7.5250   18.1310   27.8140 C   0  0  0  0  0
  -12.0200   15.8570   28.1040 C   0  0  0  0  0
   -8.0330   15.5860   25.4850 C   0  0  0  0  0
   -9.4130   14.8750   30.0960 C   0  0  0  0  0
   -3.9210   18.1180   25.4200 C   0  0  0  0  0
  -13.3570   12.2800   30.1720 C   0  0  0  0  0
   -4.0590   17.1780   26.4540 C   0  0  0  0  0
   -4.9270   19.0750   25.1520 C   0  0  0  0  0
  -13.7780   13.5480   30.6210 C   0  0  0  0  0
  -12.5360   12.1470   29.0280 C   0  0  0  0  0
  -10.8140   16.3270   22.9750 C   0  0  0  0  0
   -8.6410   17.2010   33.0480 C   0  0  0  0  0
  -10.0790   16.8490   21.9070 C   0  0  0  0  0
   -9.5810   16.7250   34.0020 C   0  0  0  0  0
   -5.2230   17.1850   27.2320 C   0  0  0  0  0
   -6.0910   19.0880   25.9470 C   0  0  0  0  0
  -13.3710   14.7000   29.9260 C   0  0  0  0  0
  -12.1320   13.3120   28.3390 C   0  0  0  0  0
  -10.1160   15.9180   24.1240 C   0  0  0  0  0
   -8.6070   16.6220   31.7630 C   0  0  0  0  0
   -7.9820   16.5160   23.1460 C   0  0  0  0  0
  -10.4550   15.1340   32.3800 C   0  0  0  0  0
  -10.0180   18.2720   27.1610 C   0  0  0  0  0
  -10.5910   18.0230   28.5350 C   0  0  0  0  0
   -8.6780   17.6490   26.9140 C   0  0  0  0  0
  -10.8300   16.5590   28.8550 C   0  0  0  0  0
   -8.6090   16.1690   26.7400 N   0  0  0  0  0
   -9.6360   15.6470   28.8450 N   0  0  0  0  0
   -8.6690   16.9590   21.9960 C   0  0  0  0  0
  -10.4860   15.6970   33.6690 C   0  0  0  0  0
   -6.2440   18.1380   26.9920 C   0  0  0  0  0
  -12.5410   14.5960   28.7910 C   0  0  0  0  0
   -8.7170   16.0040   24.2210 C   0  0  0  0  0
   -9.5100   15.5830   31.4300 C   0  0  0  0  0
   -8.8900   15.3220   27.7390 C   0  0  0  0  0
  1 34  1  0  0  0
  2 35  1  0  0  0
  3 28  1  0  0  0
  4 29  1  0  0  0
  5 40  2  0  0  0
  6 30  1  0  0  0
  6 36  1  0  0  0
  7 31  1  0  0  0
  7 37  1  0  0  0
  8 32  1  0  0  0
  8 38  1  0  0  0
  9 33  1  0  0  0
  9 39  1  0  0  0
 10 12  1  0  0  0
 10 13  2  0  0  0
 11 14  1  0  0  0
 11 15  2  0  0  0
 12 20  2  0  0  0
 13 21  1  0  0  0
 14 22  2  0  0  0
 15 23  1  0  0  0
 16 18  1  0  0  0
 16 24  2  0  0  0
 17 19  2  0  0  0
 17 25  1  0  0  0
 18 34  2  0  0  0
 19 35  1  0  0  0
 20 36  1  0  0  0
 21 36  2  0  0  0
 22 37  1  0  0  0
 23 37  2  0  0  0
 24 38  1  0  0  0
 25 39  2  0  0  0
 26 34  1  0  0  0
 26 38  2  0  0  0
 27 35  2  0  0  0
 27 39  1  0  0  0
 28 29  1  0  0  0
 28 30  1  0  0  0
 29 31  1  0  0  0
 30 32  1  0  0  0
 31 33  1  0  0  0
 32 40  1  0  0  0
 33 40  1  0  0  0
M  END
>  <MOLID> (1dmpB1)
1dmpB1

>  <SMILES_CANONICAL> (1dmpB1)
Nc1cccc(c1)CN1[C@H](Cc2ccccc2)[C@H](O)[C@H]([C@H](N(C1=O)Cc1cccc(c1)N)Cc1ccccc1)O	

>  <FINGERPRINT> (1dmpB1)
0001000000000000000000000001101000000001100000000101000000000000000000000001000000000001000000100000000000000001000011100000000000000000000010000000000010000000000000000000000000000000000000000000000000000000000000000000010000100010000000000011000000000100000000001010000000001000100000000000000000001000000010001100000000001001001100000000000000000100010000000000001110000000000000000000000000000000100110000000001000000000001000000000000000000000000000000000000000000100010000000000000000001000000000000000100000110000000000000100000000001000000000100000000000000000000000000000000011000000001000000100000000000000000000000000001000000001110000000000000000000001000000000001100000110101100001000001000000100111000000000000000011000000100000010101000000000000000110000000000000000101000000000000001111000000000000000000000000000000000000000000000000000000000000001001000000000000010000000000000000000100010000000000000100000010000000000000011000000000000000110010000000001110000000000000000010000000000000000000011000000000

>  <MACCS166> (1dmpB1)
000000000000000000100000000000000000100000001000010001000000000000000001001110000001100001100010101000000100011000001001110010111010101111110110110101111111111010111000

>  <OB_MW> (1dmpB1)
536.279

>  <OB_logP> (1dmpB1)
5.2714

>  <OB_PSA> (1dmpB1)
116.05

>  <OB_MR> (1dmpB1)
166.554

>  <OB_ATOMIC_CHARGES> (1dmpB1)
-0.1280668843 -0.1280668843 -0.2185578216 -0.2185578216 -0.2523282275 0.0488819962 0.0488819962 0.1217530225 0.1217530225 -2.00181e-05 -2.00181e-05 -0.0003218312 -0.0003218312 -0.0003218312 -0.0003218312 0.0011145208 0.0011145208 0.0180369541 0.0180369541 -0.0042107877 -0.0042107877 -0.0042107877 -0.0042107877 -0.0025257147 -0.0025257147 0.0154460179 0.0154460179 0.2021005708 0.2021005708 0.1143813568 0.1143813568 -0.2586300265 -0.2586300265 0.0888322549 0.0888322549 -0.0204383867 -0.0204383867 -0.0009422119 -0.0009422119 0.3077274427

>  <MCT_HBD> (1dmpB1)
4

>  <MCT_HBA> (1dmpB1)
7

>  <ENSEMBLE_TOTAL> (1dmpB1)
50

>  <ENSEMBLE_COORDS> (1dmpB1)
1.1236 1.6194 -6.4776 -2.3801 -0.8058 6.3920 -0.2775 3.1131 -0.8042 -2.0472 2.1794 1.0729 1.2701 -2.4135 -0.0635 2.0781 1.5181 -0.1112 -2.2644 -0.5868 0.1321 1.4503 -0.9072 -2.3001 0.0435 -1.7675 2.2500 5.2491 2.8434 -2.6684 -4.6461 -3.3613 2.3585 4.1833 3.7467 -2.2743 5.2615 1.5773 -2.2151 -4.8037 -1.9309 2.5472 -3.7734 -3.8296 1.4487 -1.3097 -0.6800 -4.8418 0.9045 0.3744 5.2964 -0.7269 0.2428 -5.7986 -0.1975 0.1897 6.0452 3.2015 3.3166 -1.4618 4.2035 1.1128 -1.3358 -4.0706 -1.0703 1.8186 -2.9748 -2.9020 0.6679 -0.6179 -1.0405 -3.7469 1.0186 -0.2704 4.0016 1.2377 0.3717 -4.4050 -1.1808 -1.2232 4.3540 -0.4210 1.7125 -0.6182 -0.8661 1.4384 0.7999 0.8942 1.0448 -0.9313 -1.1627 -0.0247 1.0128 0.8384 -0.3969 -1.0866 0.0090 -0.8785 1.1010 0.5043 0.7557 -5.6035 -1.2909 -0.6459 5.5661 3.2020 1.9418 -0.9893 -3.1032 -1.5765 0.8587 0.6977 -0.4725 -3.5077 0.0031 -1.0192 3.5354 0.7405 -1.2954 -0.0181
0.9120 1.4863 -6.4340 -2.6191 -1.3204 6.1333 -0.2241 2.9795 -0.8029 -1.8542 2.0203 1.1595 1.6109 -2.4555 -0.0336 2.2351 1.5215 -0.1778 -2.0504 -0.7567 0.1622 1.7313 -0.9575 -2.2680 0.2716 -1.9382 2.2330 4.8675 3.5140 -2.9092 -5.1580 -2.4392 2.5824 4.9939 2.0897 -2.6581 3.9397 4.2338 -2.2541 -5.0920 -1.0087 2.3459 -4.2514 -3.2580 2.0193 -0.9892 -1.2903 -4.8347 0.6398 0.1719 5.4005 -0.6055 -0.2602 -5.7822 -0.5174 -0.1169 6.0224 4.1792 1.4872 -1.7734 3.0505 3.5811 -1.3097 -4.1207 -0.4996 1.5677 -3.1995 -2.7086 1.1824 -0.2519 -1.4970 -3.7298 0.9446 -0.4313 4.1162 1.2819 0.2646 -4.3745 -1.1732 -1.6014 4.2374 -0.2921 1.5764 -0.5988 -0.6798 1.2920 0.8327 1.0444 0.9674 -0.9352 -0.9529 -0.1765 1.0343 1.0674 -0.4760 -1.0696 0.2306 -1.0140 1.1103 0.4894 0.4981 -5.5746 -1.4678 -1.0489 5.4298 3.1494 2.2567 -1.0942 -3.1226 -1.3803 0.9829 0.9171 -0.6719 -3.4801 0.0559 -1.2601 3.5396 1.0095 -1.3733 0.0029
0.5866 1.7863 -6.4202 -2.5229 -1.5755 6.1431 -0.4234 3.1030 -0.8541 -2.0553 2.0433 1.0716 1.6464 -2.2431 -0.1147 2.0591 1.7317 -0.1571 -2.0823 -0.7449 0.1449 1.6539 -0.7344 -2.3555 0.3527 -1.7559 2.1893 5.3468 2.7428 -2.7040 -4.8255 -2.8003 2.7111 4.1623 3.5805 -2.6571 5.4388 1.6571 -1.9155 -4.9103 -1.3613 2.5357 -3.9050 -3.5095 2.0338 -1.0933 -1.1611 -4.8780 0.4100 0.4486 5.3171 -0.7998 -0.0754 -5.7967 -0.6614 -0.0307 5.9738 3.1477 3.2655 -1.8310 4.3408 1.3104 -1.0317 -4.0614 -0.7346 1.7006 -2.9827 -2.8331 1.1395 -0.3151 -1.3575 -3.7990 0.7932 -0.1166 4.0361 1.0803 0.5264 -4.4090 -1.0940 -1.6222 4.2139 -0.4429 1.6965 -0.6606 -0.8300 1.3925 0.7678 0.9257 1.1514 -0.9829 -1.0037 -0.0899 0.9846 0.9990 -0.2887 -1.1380 0.2286 -0.8559 1.0530 0.2476 0.7472 -5.5840 -1.4511 -1.1171 5.4105 3.2319 2.0709 -1.0063 -3.0426 -1.4968 0.9960 0.8029 -0.4672 -3.5451 0.0487 -1.0927 3.4861 1.0000 -1.1897 -0.0680
1.6770 1.8540 -6.1603 -0.9278 1.0833 6.4727 -0.8380 3.1152 -0.9774 -2.7064 2.1995 0.8120 0.8797 -2.2893 0.1458 1.4811 1.6583 0.0681 -2.7412 -0.6028 0.0082 1.2106 -0.8657 -2.1202 -0.5275 -1.5500 2.3517 5.2522 2.0902 -1.9102 -4.3921 -4.1102 1.8152 4.1729 3.0283 -2.1605 5.0878 1.0950 -1.0206 -4.7178 -2.7924 2.3296 -3.6191 -4.2365 0.7220 -1.0326 -0.4779 -5.1075 2.0664 -0.1348 4.7603 -0.2728 0.4706 -5.9013 1.2713 0.4669 5.6627 3.0021 2.8968 -1.5117 3.8204 0.9444 -0.3288 -4.2347 -1.6944 1.7215 -3.0805 -3.0535 0.0766 -0.5570 -0.8984 -3.9225 1.4812 -0.8157 3.6216 1.4040 0.5035 -4.1689 -0.7078 -0.1601 4.4295 -0.9356 1.7208 -0.7236 -1.4778 1.5002 0.6716 0.4343 1.1109 -0.8854 -1.7245 0.0359 0.9419 0.4496 -0.3378 -1.0006 -0.5241 -0.7571 1.1376 0.9067 0.9526 -5.4618 -0.1774 0.4575 5.5034 2.8105 1.7964 -0.5815 -3.3580 -1.8332 0.5702 0.6983 -0.3657 -3.4232 0.1473 -0.8077 3.4489 0.2993 -1.1972 0.0952
-0.9930 -3.0358 -5.2634 -2.5594 -1.5795 5.7728 -0.2981 3.4806 -0.3326 -1.9498 2.1308 1.3842 1.7301 -1.9287 -0.4733 2.1773 2.0102 0.0732 -2.0034 -0.4638 -0.0181 1.7343 -0.0724 -2.4512 0.3878 -1.8283 1.8635 5.4327 3.5053 -2.2752 -4.9275 -2.8041 2.0661 5.5045 2.2002 -1.6432 4.3368 4.2693 -2.1210 -4.9763 -1.3539 2.0951 -3.9726 -3.4331 1.3581 -0.6966 0.6776 -5.2001 0.7680 -0.1431 5.2715 -1.1203 -0.6576 -5.5808 -0.4026 -0.4747 5.8441 4.4748 1.7515 -0.9036 3.2306 3.7922 -1.3109 -4.0599 -0.6367 1.4214 -2.9781 -2.6583 0.6353 0.1983 0.8427 -4.2110 1.0782 -0.6078 3.9326 0.3277 -1.5528 -3.8690 -1.0835 -1.6994 3.8812 -0.3355 2.0623 -0.3786 -0.7299 1.5233 0.9771 1.0203 1.5613 -0.8029 -0.9311 0.0278 0.9376 1.0889 0.1639 -1.1739 0.2933 -0.7517 0.8883 -0.6347 -1.7442 -4.9478 -1.3788 -1.2856 5.1287 3.2876 2.5740 -0.7424 -3.0086 -1.3134 0.6783 0.7105 -0.3170 -3.5014 0.1768 -1.3368 3.2519 1.0811 -0.8943 -0.2605
-0.6368 1.0399 -6.2170 0.0111 1.6041 5.9120 -0.4969 3.4195 -0.7238 -2.5808 2.3532 0.7170 1.0673 -2.0835 0.0881 1.6754 1.8207 0.3897 -2.4922 -0.3595 -0.3735 1.5313 -0.4747 -2.0749 -0.6251 -1.5280 2.1682 5.5338 2.8694 -1.1396 -4.9917 -3.5778 0.9419 5.3102 1.5946 -0.4822 4.5271 3.7536 -1.2569 -5.2901 -2.2070 1.3153 -3.9423 -3.8459 0.1445 -0.7868 -2.2325 -4.4414 2.0561 -1.2424 4.8613 -1.0338 -1.1936 -5.4249 1.6156 -0.1776 5.5550 4.0915 1.2886 -0.0012 3.2118 3.4266 -0.7351 -4.5068 -1.2043 0.8793 -3.0889 -2.7657 -0.3169 0.0428 -1.9965 -3.4104 1.3180 -1.7033 3.7006 0.4282 0.2695 -4.1762 -0.2804 0.0773 4.0815 -0.6397 2.0078 -0.6346 -1.3435 1.6570 0.6570 0.7311 1.3836 -0.7163 -1.6268 0.1784 0.7559 0.7376 -0.0491 -0.9379 -0.4617 -0.6423 1.0301 -0.4499 0.0168 -5.3143 0.3994 0.5204 5.1574 2.9962 2.2342 -0.1505 -3.3486 -1.4982 0.0521 0.6474 -0.6847 -3.2533 0.2044 -1.0568 3.3109 0.4865 -0.9915 0.0629
0.1859 1.8840 -6.0894 0.7520 1.3416 5.8605 -0.3654 3.0813 -0.6365 -2.0893 1.9416 1.1559 1.6484 -2.3059 -0.0438 2.0923 1.6707 0.0035 -2.0885 -0.7939 0.0233 1.7453 -0.7182 -2.2331 0.2042 -1.9223 2.1995 5.3289 2.8212 -2.5562 -5.1909 -2.8194 2.1689 5.4138 1.6332 -1.7264 4.2376 3.6057 -2.4983 -4.0732 -3.5502 1.6010 -5.2839 -1.4887 1.9953 -0.7397 -1.5316 -4.9220 -1.8218 -1.2034 5.3387 -0.7030 -0.3168 -5.7177 -1.1222 -0.1917 5.8818 4.3988 1.3117 -0.9053 3.1391 3.2577 -1.6147 -3.1207 -2.8962 0.9131 -4.2526 -0.7800 1.2577 0.0262 -1.6386 -3.8223 -1.3718 -1.8049 4.0994 0.9456 0.5718 -4.1985 0.5084 -0.2761 4.1005 -0.4103 1.6655 -0.5253 -0.8637 1.2871 0.8648 0.9563 1.1102 -0.8296 -1.0733 -0.2000 0.9825 1.0324 -0.3228 -1.0336 0.1455 -0.9812 1.0911 0.1069 0.7061 -5.3815 0.0918 0.3023 5.2451 3.2067 2.1415 -0.8662 -3.1992 -1.4534 0.7599 0.8844 -0.5336 -3.4330 -0.2673 -1.3419 3.4858 0.9863 -1.2625 0.0052
-2.3806 0.0976 -5.3459 -1.2783 0.2895 6.4533 -0.2724 3.7702 -0.4983 -2.2763 2.6555 1.0118 1.2158 -1.7981 -0.1797 1.9214 2.0295 0.3007 -2.3581 0.0608 -0.3637 1.4888 -0.0674 -2.3044 -0.4328 -1.4415 1.9462 5.8159 2.6904 -1.3447 -4.5253 -3.5248 0.5017 5.4696 1.4242 -0.7263 4.9107 3.6834 -1.4043 -4.8220 -2.2941 1.2101 -3.5838 -3.5427 -0.4591 -0.1800 -2.7315 -4.3359 1.8658 -0.7586 4.9067 -1.2463 -1.9877 -4.9790 0.9817 -0.3083 5.8146 4.2394 1.2390 -0.2155 3.5826 3.4858 -0.8509 -4.1530 -1.1669 0.9115 -2.8529 -2.3286 -0.7755 0.6751 -2.1030 -3.5116 1.4171 -1.1225 3.5765 -0.4524 0.0099 -3.8806 -0.8267 -0.4838 4.2243 -0.4590 2.3621 -0.5177 -1.0794 1.9218 0.7915 0.8778 1.7020 -0.7530 -1.4232 0.4510 0.7719 0.8156 0.2888 -1.0703 -0.2773 -0.4302 0.9192 -1.3889 -0.6640 -4.7713 -0.4274 -0.1635 5.4708 3.2537 2.3044 -0.2965 -3.1123 -1.1925 -0.1034 0.5186 -0.6814 -3.2548 0.1253 -0.9650 3.2379 0.6331 -0.7097 -0.1067
1.2046 1.4925 -6.1543 0.0151 1.5781 5.8258 -0.9351 2.7419 -0.8905 -2.7348 1.6157 0.8231 1.3709 -2.4314 0.2856 1.5047 1.5632 0.2537 -2.4163 -1.1719 -0.1205 1.7043 -0.9135 -1.9190 -0.3026 -1.9223 2.3858 4.7568 3.5420 -1.7050 -6.1446 -2.5632 1.4599 4.9461 2.2587 -1.0532 3.5492 4.1336 -1.6915 -4.8981 -3.2207 1.8073 -6.1383 -1.4956 0.6419 -0.4321 -1.6206 -4.9240 2.5177 -0.8488 4.7191 -0.0867 -0.5008 -5.7802 1.9335 0.1663 5.3800 3.9121 1.6560 -0.4392 2.4342 3.4872 -1.0235 -3.7352 -2.7658 1.3081 -4.8825 -1.0027 0.1036 0.1405 -1.7448 -3.7140 1.7743 -1.5769 3.7085 1.4228 0.2805 -4.0688 -0.1313 -0.1541 4.1698 -0.8678 1.3434 -0.6540 -1.4450 1.0334 0.7080 0.5725 0.9050 -0.7456 -1.5663 -0.4558 0.9129 0.7839 -0.5260 -0.8656 -0.3103 -1.1334 1.1690 0.8144 0.4204 -5.3848 0.5510 0.5359 5.1044 2.6031 2.2880 -0.4376 -3.7250 -1.6014 0.4379 1.0822 -0.7374 -3.2581 0.5061 -1.2280 3.4265 0.6518 -1.4267 0.1982
-0.8652 0.4939 -6.2076 -0.7712 0.2734 6.4155 -0.3207 3.2433 -0.6459 -2.2340 2.1404 0.9553 1.3546 -2.2695 -0.0978 1.9715 1.6504 0.2846 -2.2302 -0.5242 -0.3302 1.7537 -0.5658 -2.1884 -0.2880 -1.8685 2.0269 5.0640 4.0847 -1.4057 -5.8065 -2.3647 1.1319 5.1196 2.6375 -1.5023 4.0368 4.6782 -0.7722 -5.7300 -0.9264 0.9500 -4.7472 -3.1388 0.8368 -0.2971 -2.7399 -4.4502 2.2110 -1.1013 4.8043 -0.7791 -1.7736 -5.4187 1.4095 -0.5147 5.7109 4.1420 1.8885 -0.9617 2.9804 3.8706 -0.1892 -4.5968 -0.3646 0.4934 -3.5237 -2.5334 0.3419 0.4904 -2.3404 -3.4370 1.6626 -1.5585 3.5417 0.4042 -0.0476 -4.2151 -0.5038 -0.7420 4.2556 -0.4210 1.8293 -0.5766 -1.0209 1.4304 0.7528 0.9527 1.2325 -0.7594 -1.3206 -0.0474 0.7879 0.9770 -0.1944 -1.0215 -0.1558 -0.8940 0.9609 -0.4496 -0.4705 -5.3183 -0.0092 -0.3243 5.4373 3.0184 2.5301 -0.2984 -3.4438 -1.1984 0.1977 0.8391 -0.9363 -3.3037 0.3607 -1.3629 3.2662 0.7659 -1.1811 -0.0515
-1.3668 -1.9756 -5.6234 -0.8966 0.1618 6.5636 -0.5308 3.0238 -0.8497 -2.3934 1.9840 0.8382 1.3018 -2.3956 0.0489 1.8445 1.6196 0.1843 -2.3575 -0.7615 -0.1919 1.8011 -0.7840 -2.0500 -0.3268 -1.9103 2.1530 4.7096 4.0560 -1.8681 -5.6972 -2.7211 1.6381 4.8738 2.6154 -1.7964 3.6649 4.6463 -1.2610 -5.6719 -1.2773 1.4894 -4.6675 -3.4627 1.1922 1.2049 0.7111 -5.4243 2.1608 -0.9093 4.8672 0.1454 -0.1360 -5.9386 1.3298 -0.4101 5.7992 3.9757 1.8678 -1.1304 2.6918 3.8392 -0.5472 -4.6151 -0.6786 0.9120 -3.5249 -2.8168 0.5704 1.6907 0.5026 -4.1887 1.6265 -1.4085 3.6145 0.1866 -1.3696 -3.8635 -0.5871 -0.7914 4.3806 -0.5692 1.6171 -0.6649 -1.1559 1.3017 0.6916 0.8285 1.0680 -0.7971 -1.4063 -0.1779 0.8375 0.9237 -0.3689 -0.9710 -0.2211 -0.9869 1.0393 -0.3622 -1.1386 -5.1944 -0.1058 -0.3445 5.5574 2.8276 2.5013 -0.5024 -3.4911 -1.4772 0.4512 1.1524 -0.5720 -3.3722 0.3063 -1.3294 3.3681 0.7006 -1.3119 0.0384
-2.0900 0.7474 -5.8001 -1.9304 -1.3252 5.9060 0.1294 3.2378 -1.0808 -1.6769 2.2313 0.6852 1.4510 -2.3991 -0.8088 2.4158 1.9144 -1.8658 -2.0081 -0.4928 -0.2773 1.6450 -0.5979 -2.9000 0.2687 -1.9301 1.5767 5.1174 3.6748 0.9609 -4.9901 -1.9780 2.4202 5.1018 2.2401 0.7448 4.2847 4.4679 0.2640 -4.8721 -0.5574 2.1501 -4.1913 -2.8521 1.7825 -0.9122 -2.6269 -4.7462 1.3812 -0.2236 4.8090 -1.6984 -1.5884 -5.3864 0.2997 -0.4302 5.5808 4.2622 1.6999 -0.1571 3.3753 3.8863 -0.7071 -3.9555 -0.1130 1.2726 -3.1917 -2.3727 0.8443 0.1376 -2.2944 -3.9756 1.4029 -0.7118 3.4425 -0.2420 0.0608 -4.3910 -0.8401 -1.5614 3.7795 -0.0055 1.8283 -0.9831 -0.5125 1.4725 0.3981 1.3276 1.1429 -1.1501 -0.8295 0.0017 0.5389 1.2005 -0.2398 -1.5616 0.3024 -0.9131 0.5400 -1.3853 -0.2868 -5.2265 -0.8652 -1.1299 5.0553 3.3490 2.5554 -0.8992 -3.0615 -1.0531 0.6145 0.4691 -0.8957 -3.7661 0.3212 -1.3313 2.9373 1.0156 -1.2569 -0.6202
-0.9007 -1.7925 -6.0004 3.3946 -1.3008 4.6911 -0.7854 3.2037 -1.0548 -2.8782 2.3255 0.4821 0.6676 -2.2301 0.2934 1.3664 1.7529 0.3333 -2.8434 -0.4951 -0.2386 1.4569 -0.7561 -1.8191 -0.9222 -1.3948 2.3532 5.1660 2.8703 -1.2889 -5.4585 -3.3119 1.6517 4.9945 1.6130 -0.5828 4.1309 3.7197 -1.4146 -5.7016 -1.8845 1.7634 -4.4274 -3.7643 0.9160 1.4738 0.9477 -5.1482 0.3685 0.6622 5.2973 0.5686 0.1064 -5.9080 1.6207 0.1849 5.4119 3.7970 1.2913 -0.0625 2.8361 3.3712 -0.8577 -4.8876 -1.0114 1.1428 -3.5432 -2.8223 0.2531 1.7148 0.6764 -3.8542 -0.5139 0.1456 4.2677 0.2292 -1.2367 -3.9303 1.2758 -1.3263 3.5620 -0.9189 1.8135 -0.7931 -1.6459 1.6200 0.5188 0.4595 1.2042 -0.7522 -1.9325 0.1630 0.7840 0.4972 -0.2426 -0.8585 -0.7738 -0.6389 1.1239 -0.0411 -0.9498 -5.3337 2.1053 -0.8537 4.5123 2.6701 2.1946 -0.2266 -3.7495 -1.4990 0.3808 1.0508 -0.4478 -3.2153 -0.0697 -0.7960 3.4164 0.1493 -1.1115 0.1840
1.8496 1.5364 -5.9849 3.4280 -0.2786 4.6370 -0.7554 3.1112 -0.9678 -2.8298 2.3072 0.6447 0.6208 -2.3246 0.4404 1.4177 1.5864 0.2627 -2.8713 -0.5222 -0.0977 1.1955 -0.9929 -1.8455 -0.8764 -1.3754 2.5314 5.2165 2.1722 -1.6256 -5.1869 -3.7726 1.4497 4.1301 3.1112 -1.8384 5.0462 1.1177 -0.8083 -4.0537 -4.0088 0.5737 -5.5308 -2.5160 1.7845 -0.8526 -0.8282 -4.9901 0.0847 1.0312 5.3293 -0.0732 0.1081 -5.7789 1.4140 0.8373 5.3911 2.9494 2.9256 -1.2217 3.7698 0.9126 -0.1472 -3.3433 -2.9705 0.0991 -4.7662 -1.3933 1.2702 -0.4497 -1.1653 -3.7524 -0.7145 0.2833 4.3777 1.4853 0.2799 -3.9464 1.3112 -0.8268 3.6455 -0.9385 1.7278 -0.7012 -1.6201 1.5623 0.6393 0.4088 1.0499 -0.7361 -1.9464 0.1167 0.9255 0.3704 -0.4008 -0.8064 -0.7915 -0.6977 1.2519 1.0592 0.6506 -5.2889 2.0652 -0.1301 4.5179 2.7559 1.7711 -0.3594 -3.7035 -1.6127 0.4751 0.7548 -0.5693 -3.2014 -0.1213 -0.5977 3.5524 0.0922 -1.2154 0.2993
1.5985 1.0329 -6.2010 3.3386 -0.9150 5.1079 -0.5841 2.8926 -1.0693 -2.5687 2.0966 0.6179 0.9780 -2.4696 0.4433 1.6667 1.4873 0.2146 -2.5894 -0.7449 -0.1636 1.6132 -1.1133 -1.7954 -0.7062 -1.6826 2.4243 4.7612 3.5645 -1.8951 -6.1900 -2.3223 1.5339 4.8408 2.1306 -1.6817 3.7229 4.2642 -1.4044 -5.0214 -3.1637 1.3469 -6.1518 -1.0256 1.1784 -0.4492 -1.7785 -4.8604 -0.0323 0.4443 5.5176 0.0766 -0.7791 -5.7729 1.2728 0.1921 5.7228 3.8714 1.4984 -0.9954 2.6728 3.5801 -0.6708 -3.8964 -2.6460 0.8216 -4.9390 -0.4684 0.6054 0.0335 -1.8663 -3.6089 -0.7221 -0.1742 4.4016 1.5669 -0.0379 -4.0269 1.3565 -1.2618 3.7968 -0.6989 1.5128 -0.7571 -1.3607 1.3519 0.5907 0.6761 0.8944 -0.7690 -1.6813 -0.0954 0.8635 0.7103 -0.5559 -0.8037 -0.5374 -0.9177 1.2044 1.0511 0.0681 -5.3857 2.0076 -0.6971 4.8323 2.7307 2.2475 -0.4947 -3.8479 -1.2408 0.4528 1.0664 -0.9452 -3.1686 -0.0492 -0.9789 3.5594 0.4136 -1.3783 0.2886
-2.6015 -1.4194 -5.0850 -0.4663 0.7747 6.1521 -0.1268 3.0515 -1.1017 -2.2163 2.1340 0.3943 0.9395 -2.6001 -0.3648 2.1735 1.6521 -1.6447 -2.3647 -0.6361 -0.3569 1.5587 -0.9552 -2.4762 -0.2766 -1.7821 1.9593 4.6831 3.7336 1.1355 -5.1626 -3.1190 1.7336 4.4595 2.3071 1.2717 4.1023 4.4116 0.1298 -5.1582 -1.6816 1.9278 -4.3021 -3.6850 0.8672 0.5261 0.4788 -5.7695 2.4112 -0.6951 4.4427 -0.8086 -0.0645 -5.9298 1.6696 -0.0456 5.3567 3.6927 1.6599 0.3783 3.2635 3.7174 -0.8288 -4.2897 -0.9124 1.2492 -3.3548 -2.8558 0.1428 1.2506 0.1722 -4.6809 1.7766 -1.2906 3.2818 -0.5306 -1.2319 -3.8352 -0.3434 -0.4342 4.0803 -0.2989 1.6499 -0.9496 -1.0065 1.3903 0.3672 1.0402 0.9430 -0.9262 -1.3259 -0.0700 0.5926 0.9322 -0.4706 -1.2554 -0.1834 -0.9385 0.7867 -1.3345 -0.8904 -5.0026 0.2314 0.0992 5.1766 3.0542 2.3938 -0.7047 -3.3347 -1.5262 0.3382 0.6913 -0.6956 -3.6587 0.4517 -1.1511 3.0954 0.5783 -1.4182 -0.2892
1.5277 1.6772 -6.0270 1.2517 2.1690 4.9731 -1.0200 2.8811 -1.0739 -3.0067 1.8441 0.5058 0.9413 -2.3729 0.3435 1.2708 1.6443 0.3083 -2.7108 -0.9813 -0.1489 1.4962 -0.8943 -1.8534 -0.6731 -1.6030 2.4442 4.9540 3.0574 -1.3566 -5.7781 -3.2825 1.7566 3.7101 3.7681 -1.5956 4.9611 1.9514 -0.5913 -4.5205 -3.8932 1.3637 -5.9976 -1.9773 1.5202 -0.4625 -1.3093 -5.0301 2.3758 -1.3024 4.7082 0.0507 -0.2067 -5.8212 2.3180 -0.0063 5.0606 2.5633 3.3198 -1.0546 3.7230 1.4608 -0.0128 -3.5681 -3.1505 0.7706 -4.9722 -1.1747 0.8764 -0.0045 -1.5138 -3.7827 1.3665 -1.8589 3.8279 1.4829 0.3895 -3.9741 0.2939 0.3144 3.7842 -1.0247 1.4907 -0.7847 -1.7138 1.2577 0.5410 0.4029 1.0048 -0.7591 -1.8561 -0.2136 0.8438 0.5586 -0.4355 -0.8440 -0.6233 -0.8993 1.1758 0.9921 0.6212 -5.3261 1.2399 0.8497 4.5804 2.5678 2.1091 -0.2484 -3.7974 -1.7342 0.5331 0.9901 -0.6142 -3.2248 0.3729 -1.0775 3.3664 0.3183 -1.3090 0.2252
1.0858 1.5710 -6.1705 3.5760 -0.2936 4.8769 -0.9722 2.7964 -0.9346 -2.8156 1.6510 0.7274 1.3010 -2.3863 0.2526 1.4414 1.6269 0.2594 -2.4703 -1.1606 -0.0881 1.6469 -0.8539 -1.9499 -0.3418 -1.8724 2.3578 4.9867 3.1636 -1.5839 -6.3027 -2.2027 1.5127 3.7165 3.8493 -1.7354 5.0643 2.0395 -0.8497 -6.1789 -1.2716 0.4062 -5.2049 -2.7684 2.0446 -0.4650 -1.5953 -4.9628 0.0135 0.2267 5.5213 -0.1359 -0.4699 -5.8186 1.3514 0.2763 5.6490 2.6134 3.3602 -1.1419 3.8728 1.5073 -0.2131 -4.9636 -0.9631 -0.0805 -3.8936 -2.4433 1.5127 0.0932 -1.6999 -3.7442 -0.5803 -0.4917 4.4100 1.3256 0.3582 -4.0865 1.6526 -1.0468 3.6528 -0.9102 1.3975 -0.6976 -1.5128 1.0924 0.6543 0.5331 0.9669 -0.7612 -1.6058 -0.3941 0.8951 0.7434 -0.4630 -0.8823 -0.3438 -1.0571 1.1587 0.7258 0.4827 -5.4086 2.2171 -0.3841 4.6807 2.6916 2.1328 -0.3658 -3.7745 -1.5550 0.5086 1.0077 -0.6713 -3.2807 0.2078 -1.0887 3.4981 0.6039 -1.3660 0.1773
-1.9734 -0.2542 -5.6090 -0.2356 0.0261 6.4224 -0.6625 3.5233 -0.5078 -2.5477 2.2009 0.9682 1.3413 -1.8916 -0.3059 1.6655 1.9937 0.4025 -2.3728 -0.3893 -0.4059 1.6473 -0.0141 -2.2754 -0.3257 -1.7299 1.8373 5.3883 3.5720 -0.9981 -5.7702 -2.5310 1.0700 4.1774 4.3715 -1.0495 5.3511 2.3208 -0.5059 -5.7943 -1.0833 0.9650 -4.6753 -3.2184 0.6992 0.6433 -2.7238 -4.6493 2.4836 -1.3221 4.3807 -0.4896 -2.1214 -5.3243 1.8146 -0.7850 5.4171 3.0140 3.8582 -0.6119 4.0957 1.7664 -0.0321 -4.7170 -0.4261 0.5002 -3.5123 -2.5095 0.1974 1.3007 -2.0371 -3.6985 1.7797 -1.6384 3.1536 -0.1807 -0.1396 -3.9794 -0.2488 -0.7832 4.1610 -0.6883 2.1034 -0.5368 -1.2821 1.5910 0.7567 0.7238 1.6059 -0.7241 -1.4702 0.0948 0.7152 0.8332 0.2097 -1.0953 -0.2536 -0.6848 0.8340 -0.9007 -0.8756 -5.0116 0.3873 -0.5076 5.3170 2.9685 2.4978 -0.1019 -3.5256 -1.1669 0.1179 0.8570 -0.7033 -3.3323 0.4720 -1.3492 3.0334 0.6821 -0.8502 -0.1941
-1.9086 -0.2180 -5.6295 -0.4953 -0.5100 6.5507 -0.5282 3.4368 -0.5260 -2.3611 2.1757 1.0469 1.4218 -2.0059 -0.2944 1.8096 1.8760 0.3508 -2.2913 -0.4132 -0.3766 1.7111 -0.1569 -2.2944 -0.2590 -1.8265 1.8340 5.2293 3.9516 -1.1676 -5.8960 -2.1769 1.1133 3.9971 4.6625 -0.8792 5.3091 2.6258 -0.9562 -5.8276 -0.7538 0.8249 -4.8244 -2.9608 0.8979 0.5400 -2.8361 -4.6305 2.4289 -1.1679 4.4559 -0.5558 -2.1754 -5.3127 1.6672 -0.8534 5.5184 2.9284 3.9942 -0.4093 4.1569 1.9031 -0.4491 -4.6866 -0.2175 0.3552 -3.5931 -2.3811 0.3895 1.2357 -2.1806 -3.6855 1.8015 -1.4911 3.1904 -0.1139 -0.1941 -4.0054 -0.3561 -1.0843 4.2213 -0.5660 2.0168 -0.5284 -1.1269 1.5234 0.7861 0.8343 1.4970 -0.7477 -1.3662 0.0363 0.7407 0.9182 0.0921 -1.1038 -0.1691 -0.7774 0.8390 -0.8831 -0.9016 -5.0209 0.2144 -0.8145 5.4121 3.0082 2.5579 -0.2015 -3.5184 -1.0584 0.1565 0.8838 -0.8111 -3.3464 0.4622 -1.4259 3.0709 0.7689 -0.9569 -0.1893
-1.7064 0.8539 -6.5555 -0.7229 0.5311 6.0435 -0.2119 3.5959 -1.1895 -1.8418 2.6077 0.7862 1.4297 -1.9370 -0.6704 2.2177 2.1477 -1.3309 -2.1610 -0.0844 -0.4000 1.3547 -0.4181 -2.9343 0.1165 -1.4427 1.6373 4.2673 2.0054 2.4130 -4.3149 -3.4180 1.1981 3.2250 2.9867 2.1744 4.5462 1.0776 1.4802 -4.4591 -2.0966 1.7825 -3.5148 -3.6024 0.1327 -1.4206 -2.3097 -4.6083 2.4378 -0.4460 4.4868 -1.8915 -1.3304 -5.5693 1.5520 0.0243 5.3827 2.5519 2.9830 1.0104 3.8279 1.0810 0.2189 -3.7895 -1.0534 1.2606 -2.7849 -2.4793 -0.4255 -0.4005 -2.0074 -3.7865 1.9807 -0.9171 3.1931 -0.2114 0.2025 -4.7621 -0.2779 -0.3461 3.8525 -0.3778 2.1924 -1.0571 -0.7115 1.8507 0.3770 0.8704 1.4890 -1.5073 -1.0467 0.3852 0.5221 0.8518 0.0582 -1.6600 0.1108 -0.4916 0.5423 -1.3156 -0.1145 -5.6589 0.1305 0.0711 5.0668 2.8549 1.9837 -0.0002 -2.9036 -1.2584 0.1271 0.2130 -0.6915 -3.8508 0.6773 -0.8357 2.8727 0.8484 -0.8468 -0.5941
-1.9588 -1.0340 -5.5882 2.9200 0.1169 5.1974 -0.5171 3.2873 -0.8332 -2.6118 2.3905 0.7031 0.8218 -2.2353 0.2265 1.6312 1.6656 0.3160 -2.6766 -0.3821 -0.2161 1.3821 -0.7595 -1.9818 -0.7414 -1.4802 2.3259 5.5057 2.1767 -1.4335 -4.6839 -3.9234 1.1068 4.4707 3.1777 -1.6176 5.2629 1.0853 -0.6856 -3.6637 -3.9784 0.0755 -5.0429 -2.7412 1.6381 1.1509 0.9921 -5.2771 -0.6953 0.5347 5.5601 -0.0734 0.4366 -5.8217 0.6258 0.6120 5.7992 3.2646 3.0132 -1.0452 3.9602 0.9040 -0.0711 -3.0681 -2.8474 -0.3422 -4.3988 -1.5189 1.1901 1.5816 0.6062 -4.0636 -1.1778 -0.1624 4.3830 -0.3044 -0.8966 -3.8216 1.1234 -0.6417 3.7957 -0.7121 1.8905 -0.6626 -1.4058 1.6404 0.6583 0.6312 1.2074 -0.7300 -1.7428 0.1811 0.8437 0.5795 -0.2347 -0.8916 -0.6011 -0.6676 1.1328 -0.7889 -0.4731 -5.1299 1.5841 0.0021 4.8860 2.9936 1.8210 -0.2590 -3.4353 -1.5725 0.2524 0.8154 -0.3637 -3.2997 -0.3026 -0.7116 3.5220 0.2979 -1.1170 0.1588
0.1121 -3.7592 -5.2003 -0.4747 -0.4018 6.4442 -0.5799 3.3270 -0.3592 -2.3298 1.9692 1.2223 1.4997 -2.0707 -0.3541 1.8567 1.8465 0.3301 -2.2378 -0.5679 -0.3032 1.7375 -0.1621 -2.2824 -0.1174 -1.9991 1.8171 4.6088 4.6876 -1.3142 -5.9711 -2.0611 1.1686 4.7795 3.2657 -1.5542 3.5829 5.1264 -0.5650 -5.8419 -0.6892 0.7134 -4.9133 -2.8902 1.1201 -0.6897 -0.1216 -5.1469 2.4922 -1.3412 4.5214 -0.6906 -1.5200 -5.5375 1.7100 -0.9209 5.5315 3.9154 2.3842 -1.0193 2.6476 4.1766 0.0105 -4.6589 -0.2401 0.2583 -3.6358 -2.4064 0.6270 0.0735 0.2905 -4.1189 1.8985 -1.7024 3.2480 0.8885 -1.9630 -3.7673 -0.2709 -1.1432 4.1686 -0.5809 1.9094 -0.4120 -1.0893 1.3575 0.9003 0.8209 1.4332 -0.6996 -1.3009 -0.1322 0.8096 0.9444 0.0406 -1.0839 -0.0826 -0.9178 0.8519 0.0643 -2.4207 -4.8788 0.2661 -0.8206 5.3615 2.7944 2.8594 -0.2245 -3.5068 -1.1265 0.2334 0.8777 -0.6717 -3.3863 0.5710 -1.5844 3.0698 0.8305 -1.0396 -0.2001
-1.2202 -1.4992 -5.8837 3.4439 -0.5520 4.7833 -0.8519 3.0340 -0.9744 -2.8334 1.9667 0.5826 1.0363 -2.3099 0.1774 1.4329 1.7037 0.3138 -2.6348 -0.8251 -0.2358 1.6162 -0.7374 -1.9369 -0.6120 -1.7091 2.2561 5.1420 3.0555 -1.3442 -5.8025 -2.9699 1.6905 3.9271 3.8315 -1.5146 5.1162 1.9077 -0.6438 -5.9096 -1.5423 1.4506 -4.7058 -3.6396 1.2935 1.4533 1.0125 -5.2368 -0.0541 0.2703 5.4671 0.4077 0.2676 -5.9125 1.2834 0.1957 5.5871 2.7724 3.4021 -0.9751 3.8691 1.4397 -0.0659 -4.9098 -0.8858 0.8354 -3.6250 -2.9317 0.6306 1.8035 0.6878 -3.9805 -0.7164 -0.3605 4.3410 0.1733 -1.1052 -3.9400 1.4537 -1.0974 3.5555 -0.8791 1.6304 -0.7562 -1.5575 1.3424 0.5639 0.5395 1.1201 -0.7651 -1.7417 -0.1386 0.7812 0.6734 -0.3169 -0.9155 -0.5303 -0.8804 1.0692 -0.2211 -0.7549 -5.2991 2.0810 -0.5145 4.5957 2.7389 2.1482 -0.2398 -3.7137 -1.6046 0.4279 1.1233 -0.4008 -3.2991 0.0105 -1.0019 3.4087 0.4214 -1.2381 0.1079
-2.7378 -1.5033 -5.5133 -0.9173 0.5368 5.9686 -0.4530 3.3367 -1.2095 -2.0169 2.2959 0.7822 1.4828 -2.0931 -0.6520 2.0508 2.0294 -1.4107 -2.2222 -0.4496 -0.2638 1.3569 -0.6033 -2.9179 0.2400 -1.5888 1.7026 4.3120 2.1202 2.2079 -4.2825 -3.6270 1.7417 3.2186 3.0501 1.9897 4.5679 1.1566 1.3049 -4.4333 -2.2519 2.1828 -3.5028 -3.9107 0.6830 0.0039 0.9592 -6.0345 2.3655 -0.0361 4.4647 -1.2237 0.2141 -6.2336 1.4116 0.3552 5.3292 2.4708 2.9596 0.8755 3.7759 1.0734 0.0907 -3.7905 -1.2613 1.5383 -2.8000 -2.8442 -0.0068 0.7927 0.6853 -4.9814 1.9954 -0.6794 3.2165 -0.7143 -1.0656 -4.2491 -0.3273 -0.4451 3.8584 -0.5417 1.9294 -1.0573 -0.8474 1.5961 0.3822 0.7403 1.2862 -1.4973 -1.0855 0.1174 0.5684 0.7938 -0.1425 -1.6598 0.1185 -0.6943 0.5644 -1.5869 -0.7619 -5.3778 0.0030 0.1432 5.0244 2.7568 1.9295 -0.1077 -2.9259 -1.5720 0.4126 0.4125 -0.3568 -4.0431 0.6967 -0.8519 2.9105 0.8425 -1.0355 -0.5839
-2.6057 -1.3340 -5.3143 -0.3088 0.8745 6.0459 -0.1953 3.0965 -1.1854 -2.2733 2.1799 0.3527 0.9493 -2.5313 -0.4505 2.1647 1.7110 -1.5408 -2.4471 -0.5964 -0.3592 1.4791 -0.8636 -2.5914 -0.2670 -1.7341 1.8865 4.5538 3.2220 1.6803 -4.9140 -3.3130 1.8546 3.7745 4.1142 0.8409 4.5542 1.8999 1.4393 -4.9595 -1.8862 2.1236 -4.1178 -3.7908 0.8823 0.4755 0.6884 -5.8425 2.5168 -0.5660 4.2239 -0.8360 0.1080 -6.0610 1.8055 0.0941 5.1559 3.0448 3.6163 -0.1740 3.7720 1.3642 0.3388 -4.2053 -1.0403 1.3987 -3.2900 -2.8801 0.1113 1.1744 0.3742 -4.7384 1.8388 -1.1911 3.1036 -0.5854 -1.1104 -3.9895 -0.2596 -0.3734 3.9947 -0.3737 1.6984 -1.0244 -1.0618 1.4423 0.3009 0.9553 0.9865 -0.9972 -1.3637 -0.0210 0.5369 0.8564 -0.4125 -1.3556 -0.2178 -0.8997 0.7025 -1.3642 -0.7570 -5.1720 0.3561 0.1992 5.0477 3.0311 2.1859 -0.4271 -3.3209 -1.5595 0.3671 0.6154 -0.5457 -3.7642 0.5038 -1.0837 2.9826 0.5452 -1.3656 -0.3831
-0.8868 -1.8549 -6.0651 3.0758 0.1772 5.0067 -0.8368 3.0887 -0.7827 -2.7400 1.9097 0.7909 1.1900 -2.2669 0.0249 1.5124 1.7222 0.3199 -2.5487 -0.8355 -0.1997 1.6442 -0.5924 -2.0471 -0.4162 -1.8249 2.1672 5.2181 2.9222 -1.4560 -5.6211 -3.0931 1.7491 4.0306 3.7436 -1.5950 5.1767 1.7930 -0.7239 -4.4215 -3.7391 1.2500 -5.8032 -1.7722 1.5641 0.9982 1.2508 -5.2430 -0.5451 0.0285 5.4952 0.1889 0.2898 -5.9715 0.7570 0.2969 5.6973 2.8821 3.3732 -1.0014 3.9343 1.3876 -0.0917 -3.4766 -3.0148 0.6247 -4.7792 -0.9878 0.8968 1.4237 0.9632 -4.0002 -0.9590 -0.6915 4.3065 0.3215 -1.1918 -4.0709 1.3643 -0.8040 3.6357 -0.8442 1.6741 -0.6500 -1.4627 1.3011 0.6776 0.5780 1.1803 -0.7475 -1.6244 -0.1919 0.8161 0.7230 -0.2457 -0.9774 -0.3957 -0.9322 1.0232 -0.1480 -0.8919 -5.4172 1.7626 -0.1272 4.7318 2.8248 2.1301 -0.2483 -3.6485 -1.5786 0.4716 1.0562 -0.2995 -3.3824 -0.0426 -1.0812 3.4024 0.5377 -1.2153 0.0192
-0.2981 -3.2496 -5.4790 1.0004 0.5080 5.9346 -0.3919 3.4897 -0.1731 -2.0125 2.0271 1.4688 1.7373 -1.8641 -0.6052 2.0809 1.9921 0.2177 -2.0319 -0.4736 -0.1232 1.6686 0.0998 -2.4952 0.3545 -1.9452 1.7011 5.4324 3.6863 -1.8401 -5.2249 -2.5542 1.8281 4.2374 4.4747 -1.5970 5.5027 2.4143 -1.4086 -4.1418 -3.2811 1.1865 -5.2538 -1.2100 1.7901 -1.1218 0.3517 -4.9981 -1.5276 -1.9673 5.0072 -1.1670 -1.0088 -5.5040 -0.8288 -1.0665 5.7205 3.1953 3.9309 -0.9422 4.3759 1.8273 -0.7043 -3.1594 -2.6065 0.5620 -4.1896 -0.4844 1.1175 -0.2325 0.6879 -4.0475 -1.1326 -2.2696 3.6458 0.6313 -1.5746 -3.9996 0.6943 -0.6990 3.8804 -0.4042 2.0763 -0.3033 -0.7983 1.4513 1.0143 0.9638 1.6183 -0.7387 -0.9854 -0.0395 0.8824 1.0390 0.2458 -1.1971 0.2481 -0.8050 0.8011 -0.3229 -1.9482 -5.0344 0.3350 -0.4008 5.1446 3.2583 2.5481 -0.5001 -3.1687 -1.1531 0.5507 0.6629 -0.3226 -3.5092 -0.0806 -1.6425 3.0907 1.0563 -0.8635 -0.3440
0.1389 1.4960 -6.8918 0.7250 1.5171 5.4696 -0.7442 2.9994 -1.4093 -2.3408 1.9487 0.5601 1.4805 -2.2775 -0.4881 1.8760 1.8731 -1.2729 -2.2704 -0.8686 -0.3122 1.4634 -0.8382 -2.7910 0.1312 -1.7058 1.8037 3.4771 2.6587 2.6054 -5.3484 -2.6777 2.0564 2.3690 3.4385 2.0875 3.9558 1.6188 1.8999 -5.4382 -1.2859 1.6539 -4.2883 -3.4188 1.6860 -1.1750 -1.6292 -5.3445 2.9863 -1.0792 4.2373 -1.0041 -0.5276 -6.2740 2.4777 -0.0843 4.9852 1.8319 3.1329 0.8932 3.3799 1.2909 0.6076 -4.4601 -0.7349 0.9127 -3.2324 -2.8245 0.8834 -0.4028 -1.7110 -4.2469 2.2248 -1.6074 3.1211 0.7502 0.3298 -4.8572 0.4854 -0.0004 3.6227 -0.7288 1.6008 -1.1704 -1.0985 1.3249 0.2678 0.6307 1.0482 -1.4815 -1.2285 -0.1552 0.5321 0.7906 -0.3777 -1.5877 0.0258 -0.8773 0.6198 -0.0803 0.4285 -6.0504 1.1773 0.4925 4.6690 2.3455 2.0063 0.1303 -3.3040 -1.5281 0.5301 0.5862 -0.6801 -3.9839 1.0271 -1.0783 2.8124 0.8084 -1.2373 -0.4852
-2.7390 -1.6815 -5.3726 -0.8377 0.6783 5.8643 -0.4986 3.3411 -1.1562 -2.0281 2.2185 0.8288 1.5749 -2.0465 -0.7045 2.0385 2.0920 -1.3466 -2.1490 -0.5266 -0.2906 1.3882 -0.5240 -2.9428 0.3382 -1.5992 1.6733 4.2995 2.1206 2.2729 -4.4927 -3.5425 1.6468 3.1275 2.9633 2.1232 4.6197 1.2387 1.3095 -3.5467 -3.8821 0.5992 -4.6274 -2.2626 2.0374 -0.1542 0.9165 -6.0318 2.4529 -0.0475 4.4457 -1.3453 0.1019 -6.1772 1.4950 0.4115 5.2707 2.3776 2.8851 1.0100 3.8256 1.1728 0.0959 -2.8019 -2.9217 0.0233 -3.8370 -1.2203 1.4053 0.6844 0.7016 -5.0036 2.0865 -0.7189 3.2117 -0.6940 -1.1190 -4.1963 -0.2394 -0.3955 3.7991 -0.5541 1.9285 -1.0321 -0.8449 1.5590 0.4034 0.7451 1.3286 -1.4899 -1.0406 0.0722 0.5576 0.8334 -0.0955 -1.6711 0.1900 -0.6966 0.5475 -1.6203 -0.8828 -5.2983 0.0867 0.2227 4.9513 2.7384 1.9518 -0.0447 -2.9499 -1.5388 0.4461 0.3928 -0.3425 -4.0358 0.7901 -0.8571 2.8820 0.9155 -1.0039 -0.6109
0.5000 -3.6040 -5.2257 3.9198 -1.2245 4.1991 -1.0729 3.4391 -0.5991 -2.9598 2.0756 0.8404 1.1604 -1.8716 -0.1180 1.2750 2.0692 0.5248 -2.5831 -0.5852 -0.3517 1.5554 -0.0075 -2.0717 -0.4841 -1.6050 2.0534 5.1498 3.4535 -0.6481 -6.1434 -2.4758 1.0939 4.9725 2.1451 -0.0451 4.0884 4.2567 -0.8417 -4.8656 -3.1632 1.1368 -6.2211 -1.2287 0.5966 -0.4796 -0.0097 -5.2246 0.6934 0.1591 5.2276 -0.3588 -1.3965 -5.6341 2.0049 -0.1399 5.2142 3.7450 1.7312 0.3164 2.7627 3.8126 -0.4497 -3.7562 -2.5520 0.6842 -5.0242 -0.5685 0.1064 0.1059 0.4103 -4.0897 -0.1720 -0.3268 4.1694 0.9624 -1.8140 -3.6589 1.7553 -1.4069 3.1756 -1.0188 2.0195 -0.5604 -1.6541 1.5306 0.7224 0.4277 1.5992 -0.6457 -1.7482 0.0248 0.7595 0.6332 0.2014 -0.9724 -0.4853 -0.6638 0.9499 0.3332 -2.2803 -4.8878 2.5709 -0.9551 4.1477 2.5952 2.5909 0.0881 -3.8350 -1.1949 0.1689 0.8381 -0.5343 -3.2635 0.3420 -1.0649 3.1691 0.4713 -0.8457 -0.0566
-2.1431 0.7620 -6.2775 1.2129 1.2105 5.4852 0.0211 3.4150 -1.1549 -1.3357 2.3301 0.9744 1.8778 -2.0595 -1.0031 2.4879 1.9721 -1.5333 -1.7137 -0.3536 -0.3028 1.4626 -0.4936 -3.1953 0.9054 -1.6547 1.4810 4.2501 2.5330 2.3239 -4.7478 -2.3470 1.9609 4.3635 1.2609 1.6359 3.5442 3.5358 1.7717 -3.8190 -3.0939 1.1323 -4.6654 -1.0058 2.0276 -1.2388 -2.5391 -4.8037 -1.1648 -1.4438 4.6649 -1.9366 -1.5303 -5.5790 -0.5462 -0.4448 5.3208 3.7795 1.0871 0.4361 2.9239 3.3537 0.4737 -2.8624 -2.4476 0.4419 -3.6391 -0.3064 1.2756 -0.1880 -2.1917 -4.0404 -0.6740 -1.8647 3.3683 -0.3843 0.1170 -4.7427 1.0679 -0.1923 3.5390 -0.0924 2.0058 -1.0480 -0.2548 1.6086 0.4015 1.1148 1.3474 -1.6537 -0.5401 0.1318 0.5297 1.0872 -0.0780 -1.8578 0.6392 -0.7140 0.4013 -1.5315 -0.2439 -5.5658 0.6212 0.2109 4.7466 3.0106 2.1694 -0.1571 -2.7601 -1.0006 0.5308 0.2401 -0.8038 -3.9889 0.3726 -1.2370 2.8051 1.2553 -1.0048 -0.8242
-1.4127 -3.2309 -5.2581 -0.5441 -0.4442 6.2484 -0.4197 3.0974 -0.9856 -2.2294 1.8559 0.6189 1.4804 -2.3631 -0.7228 2.0746 2.0972 -1.5479 -2.1193 -0.8749 -0.3919 1.7228 -0.4483 -2.7027 0.1936 -1.9955 1.6671 4.4351 4.0077 1.4805 -5.6735 -1.9614 1.7428 3.3533 4.7129 0.8180 4.7112 2.7339 1.1465 -4.4696 -2.7648 1.8440 -5.6976 -0.8860 0.9351 -0.6250 0.4023 -5.4974 2.5573 -0.5640 4.3065 -1.2276 -0.8888 -5.7694 1.6974 -0.3515 5.3181 2.6321 4.0981 -0.1369 3.9354 2.0675 0.1134 -3.3686 -2.4227 1.1505 -4.5069 -0.5083 0.1926 0.2943 0.5257 -4.5242 2.0792 -1.1167 3.0531 0.1254 -1.8358 -4.0103 -0.1547 -1.1574 3.9930 -0.3779 1.6836 -0.8924 -0.9629 1.2482 0.4318 1.0410 1.1757 -0.9391 -1.1007 -0.2541 0.5474 1.1144 -0.1963 -1.4042 0.1388 -1.0156 0.6006 -0.8782 -1.9778 -5.0549 0.2804 -0.6608 5.1677 2.9197 2.7162 -0.4890 -3.3799 -1.2343 0.3140 0.6570 -0.6326 -3.7271 0.7660 -1.3683 2.8904 0.9391 -1.2685 -0.5267
-0.9871 0.5412 -6.2190 3.7309 -0.8769 4.4379 -0.1152 3.0491 -1.2924 -2.2410 2.2319 0.2024 0.9958 -2.5259 -0.1951 2.2666 1.6810 -1.4562 -2.3681 -0.5866 -0.4800 1.6719 -0.9357 -2.3585 -0.4501 -1.6878 1.9766 4.3788 3.7233 1.6701 -6.0196 -1.7666 1.4211 4.3530 2.2724 1.6176 3.7502 4.4421 0.7230 -4.9171 -2.7009 1.2782 -5.9056 -0.5141 0.9454 -0.6979 -2.7973 -4.5933 0.3101 0.1485 5.2325 -1.1140 -1.7503 -5.5080 1.6418 -0.0157 5.3178 3.7017 1.6445 0.6221 3.0396 3.7648 -0.3482 -3.7756 -2.3121 0.6828 -4.6762 -0.0931 0.2982 0.1710 -2.5217 -3.6052 -0.4170 -0.3978 4.1019 0.3216 -0.2124 -4.3225 1.6798 -1.2592 3.2487 -0.2830 1.6611 -1.0523 -1.0457 1.4686 0.2410 1.0513 0.9771 -0.8899 -1.3865 0.0188 0.5068 0.9879 -0.4416 -1.1744 -0.2685 -0.8642 0.7982 -0.6261 -0.4994 -5.3937 2.3684 -0.7449 4.2857 3.0029 2.4203 -0.3926 -3.6464 -0.9518 0.1848 0.6826 -1.1697 -3.4495 0.2445 -1.0605 3.1352 0.5903 -1.3587 -0.1973
-0.1363 -3.9163 -4.8922 3.4981 -1.3609 4.8753 -0.5395 3.3513 -0.5760 -2.4860 2.1929 0.9336 1.2425 -2.1264 -0.0131 1.7588 1.8130 0.4149 -2.3807 -0.4670 -0.3867 1.7316 -0.3824 -2.0464 -0.4992 -1.7785 2.0447 4.8498 4.3045 -1.1972 -6.2199 -1.9328 0.8095 4.9427 2.8578 -1.2764 3.7891 4.8785 -0.6027 -5.0625 -2.8089 0.7853 -6.0924 -0.6386 0.4672 -0.3261 -0.2076 -5.1766 0.0870 -0.1741 5.4527 -0.5185 -1.6154 -5.4705 1.3971 -0.4210 5.6320 3.9679 2.0906 -0.7567 2.7345 4.0510 -0.0438 -3.8601 -2.3271 0.4226 -4.7971 -0.1195 0.0663 0.3759 0.1659 -4.0927 -0.5761 -0.6230 4.2437 0.7607 -2.1497 -3.4956 1.5363 -1.5493 3.5016 -0.6082 1.9340 -0.5275 -1.2558 1.5043 0.7686 0.7847 1.3714 -0.6612 -1.5291 0.0208 0.7713 0.8594 -0.0510 -0.9354 -0.3541 -0.8028 0.9820 0.0002 -2.5657 -4.6673 2.1637 -1.1373 4.6207 2.8081 2.7110 -0.1372 -3.7196 -0.9250 0.0653 0.9238 -0.8464 -3.2073 0.1263 -1.2656 3.2935 0.6229 -1.0545 0.0117
-2.5807 -1.7602 -5.0170 3.5594 -1.1068 4.5305 -0.0016 3.1129 -1.3466 -2.2703 2.5034 0.0647 0.5987 -2.4891 -0.0051 2.2476 1.5140 -1.4283 -2.5705 -0.3149 -0.4845 1.4304 -1.0809 -2.2456 -0.7233 -1.3425 2.1380 4.5642 3.3278 1.6877 -5.3065 -3.0483 1.3499 4.3025 1.9002 1.7009 4.0937 4.0900 0.6848 -4.2917 -3.5105 0.4205 -5.4230 -1.7361 1.6217 0.5132 0.2240 -5.6324 0.5228 0.8817 4.9817 -0.7958 -0.3687 -5.8309 1.7747 0.4139 5.1396 3.5955 1.3345 0.7070 3.3197 3.4816 -0.3830 -3.4537 -2.6306 -0.1561 -4.5209 -0.7825 0.9978 1.1978 -0.0243 -4.5029 -0.3434 0.3039 3.9715 -0.5828 -1.4504 -3.6830 1.4623 -1.1939 3.3650 -0.3000 1.7530 -1.0817 -1.1252 1.6710 0.1871 0.9612 0.9508 -0.8663 -1.5756 0.2644 0.5078 0.7738 -0.4669 -1.1018 -0.5149 -0.6618 0.8763 -1.3397 -1.1754 -4.8977 2.2749 -0.6710 4.3041 3.0643 2.1614 -0.3654 -3.5589 -1.2159 0.1627 0.6162 -0.8737 -3.4765 0.1104 -0.6907 3.1861 0.2953 -1.2934 -0.0806
-0.3117 0.1185 -6.5165 3.2850 -2.8404 4.6096 -0.1148 3.0661 -1.5702 -2.2914 2.4570 -0.0428 0.7887 -2.4131 0.0705 2.2636 1.6647 -1.4089 -2.4735 -0.3970 -0.4647 1.6469 -1.0217 -2.1595 -0.6658 -1.3158 2.1408 3.9116 4.1723 1.6561 -6.1287 -1.5048 1.4718 3.8213 2.7358 1.8454 3.5092 4.7257 0.4988 -5.9180 -0.1482 1.0014 -5.1757 -2.4369 1.2911 -0.7430 -2.8915 -4.3667 1.5498 0.3764 4.7559 -0.8812 -1.9721 -5.4799 2.4404 -0.6021 4.9988 3.3311 1.9551 0.8655 2.9686 3.8853 -0.5553 -4.7644 0.1820 0.3943 -3.9287 -2.0805 0.6377 0.0418 -2.5699 -3.3240 0.4826 0.1647 3.7959 0.6145 -0.4510 -4.3489 1.3584 -2.0592 3.4072 -0.3188 1.7170 -1.1836 -1.1152 1.6761 0.1044 0.9894 1.0234 -0.9054 -1.5032 0.2662 0.4969 0.9126 -0.4121 -1.0646 -0.4172 -0.6165 0.8954 -0.2302 -0.7919 -5.4875 2.3485 -1.8794 4.3034 2.8643 2.5557 -0.3756 -3.7221 -0.8175 0.2251 0.7301 -1.2897 -3.3032 0.4052 -0.9990 3.1258 0.4401 -1.2319 -0.0346
-0.8385 -3.4447 -5.5233 0.1583 0.1876 6.0300 -0.4329 3.1921 -0.8924 -2.3179 1.9467 0.6277 1.3089 -2.3238 -0.7687 2.0625 2.1436 -1.3753 -2.2621 -0.7608 -0.4249 1.6891 -0.3464 -2.6763 0.0266 -1.9643 1.6228 4.0517 3.9930 1.9395 -5.7515 -2.1156 1.6640 3.2681 4.7755 1.0008 4.1890 2.6673 1.7626 -4.5714 -2.9556 1.5649 -5.7668 -0.9032 1.0830 -0.8115 0.2793 -5.4056 2.9076 -1.0207 3.9436 -1.1450 -1.0770 -5.8011 2.2356 -0.4665 4.9682 2.6707 4.1741 -0.0430 3.5446 2.0162 0.6356 -3.4858 -2.5170 0.9028 -4.5967 -0.4299 0.3664 0.0778 0.4936 -4.4206 2.1845 -1.5451 2.8010 0.3959 -1.8905 -4.1316 0.1209 -0.8614 3.8724 -0.4429 1.7747 -0.8524 -1.0585 1.3175 0.4533 0.9599 1.2247 -0.8948 -1.2290 -0.1846 0.5274 1.0191 -0.1286 -1.4028 -0.0072 -0.9718 0.5677 -0.5680 -2.1349 -5.1976 0.7815 -0.3795 4.9428 2.7991 2.7365 -0.2239 -3.4895 -1.1929 0.2989 0.6866 -0.6362 -3.7399 0.8421 -1.4518 2.7573 0.7953 -1.2196 -0.5581
-2.7352 -0.0256 -5.4573 0.3347 1.2331 5.8639 0.0933 3.6312 -1.0636 -1.8382 2.7233 0.6672 1.2697 -2.0121 -0.5007 2.4170 1.9723 -1.2588 -2.1643 0.0654 -0.6273 1.3837 -0.4955 -2.8000 -0.1871 -1.3670 1.7283 4.1183 2.8898 2.5617 -4.8592 -3.1196 0.3293 4.0868 1.5239 2.0671 3.5753 3.8768 1.8264 -3.7647 -3.3168 -0.6055 -5.0276 -1.9268 0.9275 -0.8373 -3.0488 -4.4059 2.6438 -1.1068 4.2618 -1.8600 -2.2147 -5.0060 2.1283 -0.2296 5.1407 3.5006 1.2396 0.8904 2.9647 3.5772 0.5427 -2.9159 -2.3075 -0.8689 -4.1194 -0.8311 0.6312 0.1867 -2.4883 -3.7396 1.8871 -1.4823 3.0824 -0.6863 -0.2714 -4.1814 0.1323 0.0203 3.8004 -0.1952 2.2455 -1.0016 -0.7186 1.8991 0.3742 1.0165 1.4309 -1.3521 -1.1639 0.4580 0.4520 0.8862 0.0105 -1.5344 -0.0629 -0.4787 0.5908 -1.7983 -0.8726 -4.9083 0.8150 0.3622 4.9117 2.8970 2.3064 0.1074 -3.0930 -1.0200 -0.2168 0.2508 -1.0439 -3.5994 0.6894 -0.9181 2.8429 0.7497 -0.8884 -0.4724
-1.6281 -3.6795 -4.7877 3.3992 -2.0438 4.7375 -0.1183 3.8290 -1.2755 -2.0042 3.0095 0.5489 1.1232 -1.7605 -0.4216 2.2139 2.2068 -1.1167 -2.3531 0.2980 -0.5876 1.3308 -0.3349 -2.7494 -0.3497 -1.0549 1.7578 3.7265 2.3550 2.8752 -4.6255 -3.1394 0.5755 2.8581 3.4010 2.3687 4.0053 1.2830 2.1123 -4.8390 -1.8575 1.2233 -3.7113 -3.2557 -0.4039 -1.2474 -0.0351 -5.4585 1.0152 0.7281 4.8408 -1.7301 -1.4007 -5.5436 2.0289 -0.0926 5.1702 2.3411 3.3044 1.1315 3.4567 1.1852 0.7718 -4.1216 -0.7834 0.8468 -2.9343 -2.0983 -0.8096 -0.2836 0.2837 -4.5773 0.2103 0.4490 3.6663 -0.1838 -2.0061 -3.7921 1.6177 -1.4732 3.2323 -0.3872 2.4450 -1.1188 -0.8849 2.1760 0.2830 0.8468 1.6460 -1.4309 -1.3178 0.7380 0.4383 0.7430 0.2146 -1.5423 -0.2148 -0.1908 0.6029 -1.2247 -2.3642 -4.7478 2.3536 -1.2434 4.3372 2.6398 2.1471 0.3048 -3.1183 -0.9146 -0.1965 0.2516 -0.7370 -3.6929 0.5184 -0.5930 2.8730 0.5979 -0.6406 -0.4456
-0.5781 -4.5392 -4.0085 -1.5405 -2.5727 5.2350 -0.3377 3.9040 -1.4496 -1.1752 3.1726 1.0379 2.1961 -1.2000 -0.6552 2.1696 2.6289 -2.0104 -1.6172 0.3208 0.2421 1.3603 -0.1481 -3.0114 1.3357 -0.4996 1.8414 4.4930 4.1009 1.2646 -4.5240 -1.0748 3.0608 4.5428 2.6983 0.8915 3.6637 4.9407 0.6189 -4.1117 -1.8877 1.9330 -4.0014 0.1520 3.2341 -1.7993 -1.1078 -4.7927 -0.3341 -3.9382 2.0656 -1.7285 -2.5567 -4.7307 -0.9667 -3.8295 3.2467 3.7711 2.2397 -0.1102 2.8390 4.4469 -0.4700 -3.1899 -1.4245 1.0702 -3.0180 0.6578 2.2934 -0.8401 -0.3613 -4.2175 0.4553 -2.8293 1.5654 0.3312 -2.3518 -3.4861 -0.1492 -1.5772 3.5459 -0.2776 2.5358 -1.0889 -0.1675 2.3924 0.4108 0.8793 1.8765 -1.7803 -0.3593 0.9502 0.8159 0.9964 0.4404 -1.7350 0.8212 0.1237 0.6310 -0.7076 -3.1715 -4.0994 -0.8727 -2.6061 4.0318 2.8707 3.1443 -0.8062 -2.6015 -0.1104 1.2702 0.2586 -1.0088 -3.5221 0.5167 -1.6759 2.2562 1.3974 -0.2550 -0.5881
-0.4555 2.6854 -6.3755 -4.2147 -1.6405 4.6770 -0.9853 -0.4876 -2.8828 -1.9246 -2.2046 -0.5710 0.2557 2.7853 0.7084 1.9672 -0.1961 -2.5470 0.6612 -1.6811 1.0059 1.2195 2.3756 -1.7746 -0.7245 0.9872 2.4520 5.3776 -2.4315 -1.2497 0.7184 -3.2698 4.9762 4.1977 -3.1028 -1.7644 5.4121 -1.0890 -1.1769 1.5729 -2.1584 4.5980 -0.0959 -3.8317 4.0649 -1.6056 4.3544 -3.2521 -4.5401 1.2473 2.4547 -1.5198 3.9721 -4.6482 -4.8581 0.2173 3.2589 3.1317 -2.3837 -2.1597 4.2613 -0.3111 -1.6007 1.5435 -1.6831 3.3407 -0.1303 -3.3192 2.7064 -0.7644 3.8138 -2.3538 -3.1482 1.5383 2.1643 0.3199 2.5171 -4.0845 -2.5297 -0.3348 3.5712 -0.2952 -0.9084 -1.7231 -1.2424 -0.9632 -0.5533 0.9318 -0.0696 -1.4490 -0.5397 -0.7905 0.7685 0.6850 1.2822 -0.9731 -0.3280 0.6058 1.1056 -0.5964 3.0835 -5.0657 -3.8181 -0.6147 3.8491 3.1620 -0.9343 -2.0613 0.6448 -2.2742 2.3651 0.2249 2.8395 -2.7818 -2.1792 0.7601 2.6801 0.2085 1.6145 0.3011
-0.3315 6.2438 -1.7177 -3.8390 0.1247 4.9826 -1.3832 0.2380 -2.7196 -2.6305 -1.0916 -0.3711 1.7733 2.1189 0.8322 1.4311 -0.6453 -2.9602 0.1160 -2.0727 0.6884 1.9106 1.8706 -1.8582 0.4229 0.5865 2.5919 3.7555 -4.2005 -2.4496 -1.4566 -4.8236 3.5695 4.3367 -2.8908 -2.2175 2.4782 -4.3097 -2.8549 -1.9990 -4.7605 2.2242 -0.4451 -4.0125 3.9263 -0.1438 3.6826 -4.4137 -2.3294 3.0916 3.4689 -0.4782 4.9033 -3.7057 -3.1997 2.2934 4.1127 3.5965 -1.7833 -2.4004 1.6750 -3.1166 -3.0498 -1.4926 -3.8896 1.3333 0.1056 -3.0743 2.9649 0.5897 2.7331 -3.8082 -1.0916 2.5410 2.9514 0.7375 4.0682 -1.7939 -1.7592 0.3762 3.8070 -0.7541 -0.5445 -1.7256 -1.4344 -0.3321 -0.3999 0.7346 -0.3048 -1.6624 -0.5506 -0.7140 0.7633 1.1571 0.9341 -1.0344 0.3506 0.3535 1.1596 -0.0595 5.1043 -2.4405 -2.9105 0.8765 4.3008 2.2097 -1.9035 -2.8181 -0.4159 -2.9955 1.7263 1.0210 2.9178 -2.4337 -0.8258 1.2285 3.0886 1.1288 1.1790 0.3431
-2.1709 5.1783 -2.6811 -4.4692 -0.8408 4.4764 -1.0750 -0.1257 -2.8984 -2.2892 -1.7367 -0.6689 0.9534 2.5417 0.8641 1.8672 -0.4122 -2.7096 0.4042 -1.9368 0.8120 1.6233 2.1932 -1.7202 -0.2817 0.8200 2.5299 4.7886 -3.4125 -1.8159 0.2282 -3.9194 4.5965 3.4853 -3.7724 -2.3424 5.0964 -2.1204 -1.6045 1.3359 -3.0435 4.2602 -0.7637 -4.1254 3.7118 0.0666 3.2593 -4.9522 -3.7972 2.3092 2.7448 -0.9914 4.1388 -4.4934 -4.4448 1.3280 3.3981 2.5808 -2.8158 -2.6166 4.1197 -1.0860 -1.8963 1.3696 -2.4338 3.0623 -0.7265 -3.4710 2.4164 0.8649 2.6490 -4.0596 -2.3850 2.1688 2.4428 -0.3065 3.6992 -2.2197 -2.4359 -0.0073 3.5063 -0.4448 -0.7478 -1.7965 -1.3417 -0.6870 -0.5884 0.9355 -0.1890 -1.5361 -0.5735 -0.7858 0.7056 0.9766 1.1399 -0.9500 -0.0358 0.4931 1.1347 -1.1849 4.3580 -3.1782 -3.7446 0.1155 3.8017 2.9058 -1.4199 -2.3702 0.2890 -2.6427 2.1129 0.6550 2.8554 -2.6368 -1.7340 1.0422 2.7841 0.6502 1.4421 0.3747
0.5037 5.1982 -3.9514 -3.8131 0.1360 5.2579 -1.2667 1.5297 -2.4389 -3.0195 0.1479 -0.4328 2.2518 1.0806 1.1626 0.9323 -0.3279 -3.1479 -0.8519 -1.9954 0.1189 2.4026 1.3663 -1.5245 0.3247 -0.0919 2.6250 1.5661 -4.5027 -3.8485 -1.2310 -4.8520 3.2820 2.6195 -3.6743 -3.2929 0.3724 -3.9632 -4.1527 -2.3916 -4.1269 2.7974 -0.0209 -4.6292 2.7394 2.5277 5.0475 -0.8304 -1.7038 2.8461 4.0004 1.7675 5.5807 -1.9447 -2.7106 2.1912 4.6069 2.4093 -2.3611 -3.0940 0.1441 -2.5462 -3.9380 -2.2595 -3.2296 1.8045 0.1247 -3.6592 1.6691 2.6996 3.7204 -0.7076 -0.6606 2.1013 3.3209 1.4505 3.3241 -2.7409 -1.7947 0.0557 3.9549 -1.0435 0.3218 -1.7405 -1.6295 0.4008 -0.3578 0.4101 -0.0926 -1.7452 -0.9777 -0.5635 0.6010 1.2922 0.6722 -0.8809 0.2409 -0.0141 1.1746 1.2353 4.7598 -2.8719 -2.7667 0.7364 4.5952 1.1140 -1.7806 -3.4069 -0.9494 -2.9803 1.2270 2.1075 2.8186 -1.6819 -0.7147 0.7569 3.2769 1.3088 0.5982 0.5159
-0.7956 4.5888 -4.1625 -1.0497 4.0627 5.1254 -1.2727 0.6201 -2.5429 -2.7223 -1.2644 -0.7388 1.5035 1.5399 1.6264 1.5552 -0.2353 -2.7424 -0.0009 -2.4192 0.3377 1.8925 1.9352 -1.0139 -0.2165 -0.1933 2.8280 4.1479 -3.6449 -2.8449 -1.8196 -6.0802 1.5938 2.7735 -3.7374 -3.3071 4.6225 -2.4759 -2.3761 -1.8483 -5.6702 0.2012 -1.2288 -5.3007 2.5156 -0.0890 5.0894 -0.5404 -3.3856 1.9029 3.3168 -0.6244 5.2969 -1.8724 -2.8903 2.9378 4.0190 1.9804 -2.6511 -3.2851 3.7630 -1.3072 -2.3376 -1.2844 -4.5050 -0.1674 -0.6188 -4.0441 2.1193 0.7057 4.0337 -0.2921 -2.5100 0.8163 2.9187 0.5569 3.3193 -2.5996 -0.6785 1.9703 4.0040 -0.7361 -0.4001 -1.7259 -1.5469 -0.5274 -0.4656 0.7405 -0.2187 -1.4644 -0.7811 -1.1621 0.6694 1.0993 0.8198 -0.5126 0.0131 -0.1848 1.3911 -0.3207 4.4505 -2.8775 -1.4823 2.9820 4.3908 2.4876 -1.3941 -2.7562 -0.6654 -3.6515 0.8324 1.0101 3.0883 -1.3526 -1.1978 0.8637 3.2159 0.9140 0.7501 0.8728
5.7446 1.0783 -1.7576 0.9996 -0.5812 6.0771 1.5489 2.7117 -0.0699 -0.7071 2.6462 1.3509 0.2848 -2.6611 -0.6182 0.6255 1.7386 -2.4716 -2.2934 0.6548 0.1840 1.3242 -0.9635 -2.4652 -0.8547 -2.0206 1.7535 -2.8417 3.6827 -4.0594 -5.9823 -0.9130 1.6836 -1.9169 4.3919 -3.1933 -2.6242 2.3911 -4.3635 -5.2945 -1.5463 0.5726 -5.4663 0.1896 2.2556 4.6027 -2.4472 -1.3973 2.3996 -2.8461 3.5717 5.4605 -1.2777 -1.3814 2.2673 -2.1040 4.6848 -0.8361 3.7600 -2.7016 -1.4531 1.7106 -3.8399 -4.1356 -1.0355 0.1203 -4.2184 0.7458 1.7632 3.3082 -2.3285 -1.7402 1.3452 -2.8510 2.5764 3.5806 0.0466 -2.1116 0.1019 -1.3093 3.9707 0.9384 1.4458 0.0517 -0.0533 1.3960 1.1952 0.3071 0.9416 -1.2228 -1.0917 0.2983 1.0391 0.5084 -0.4962 -1.3492 -0.5539 -1.0184 0.7446 4.9826 -0.0671 -1.7312 1.0714 -1.3020 4.9065 -0.6023 2.3640 -3.0279 -3.5655 0.1417 0.7542 2.7655 -1.0235 -2.0780 0.2514 -2.0877 2.7510 0.0726 -1.4555 -0.4272
-1.4060 4.5258 -4.0189 -3.6181 3.7670 2.4608 -1.3056 0.3408 -2.7460 -2.5797 -1.6747 -0.8878 1.2008 1.8073 1.3861 1.5833 -0.3053 -2.8334 0.1575 -2.3896 0.3680 1.7704 1.9734 -1.2589 -0.3929 0.0475 2.6507 4.2717 -3.6363 -2.7208 0.4104 -4.8748 3.8439 2.8872 -3.8114 -3.1211 4.7266 -2.4164 -2.3842 1.4463 -3.9033 3.5426 -0.6429 -5.0151 3.0196 0.3229 5.4037 -0.8399 -4.1185 0.2774 3.4352 -0.5295 5.5071 -2.0087 -4.3655 1.5704 3.1607 2.0578 -2.7531 -3.1582 3.8314 -1.2743 -2.4179 1.3510 -3.1385 2.4403 -0.7488 -4.1879 1.8311 1.0284 4.2811 -0.6215 -2.7772 -0.2526 3.2815 0.1608 3.2839 -2.6487 -2.0494 1.9543 2.5992 -0.7066 -0.5836 -1.8620 -1.5463 -0.7427 -0.6243 0.7393 -0.2572 -1.5757 -0.7445 -1.1882 0.5727 0.9847 0.8779 -0.7026 -0.0954 -0.0697 1.2314 -0.6176 4.4925 -2.8914 -3.2936 2.4556 2.7238 2.5455 -1.4373 -2.7767 0.1987 -3.2714 1.5633 0.9161 3.1618 -1.5423 -1.7833 0.5478 2.8561 0.7305 0.9081 0.6743
5.6967 1.2756 1.2367 3.0255 1.2720 4.5292 -0.1737 2.8768 -0.9081 -2.2872 1.6823 0.1847 2.0866 -2.0394 0.2156 0.2527 1.0583 -2.9448 -2.0816 -1.0514 -0.3500 2.4146 -0.4690 -1.9799 0.1451 -1.8893 2.0700 -3.3404 0.0853 -5.0512 -5.3550 -2.9341 1.6698 -2.3003 -0.9092 -4.8609 -3.1866 1.3275 -4.5600 -5.4240 -1.5348 1.2894 -4.2627 -3.6606 1.3729 4.2989 2.7742 -1.8742 -0.3273 0.0405 5.3165 5.0922 2.6084 -0.6707 0.8349 0.7118 5.3996 -1.1755 -0.5871 -4.1972 -1.9731 1.6772 -3.8442 -4.3915 -0.9605 0.6464 -3.1473 -3.0415 0.6800 3.4793 1.7889 -2.2795 -0.5694 -0.8491 4.1978 4.1299 0.4147 -0.3957 1.6419 -0.3099 3.3661 0.0413 1.5654 -0.4356 -1.0308 1.1266 0.5394 0.1862 0.5372 -1.5272 -1.1551 -0.3840 0.6476 1.1970 -0.4445 -1.1777 0.0888 -1.1073 0.8479 5.0120 1.4794 0.0608 1.8672 0.5430 4.3849 -1.0121 0.7540 -3.6609 -3.2018 -1.7400 0.3443 3.3714 0.5703 -1.4960 0.3705 -1.0071 3.2487 1.1626 -1.2502 -0.0347
0.8758 5.4685 1.5704 -0.1766 3.4707 5.0096 -1.2409 1.3832 -2.7709 -3.2195 -0.2830 -1.2720 1.6251 0.6203 1.4361 1.2396 -0.2076 -3.1546 -1.0435 -2.3485 -0.5297 2.0679 1.5106 -1.0917 -0.6017 -0.6350 2.3554 2.8507 -4.1383 -3.6860 -1.2011 -5.5438 2.3110 3.5764 -3.1310 -2.9338 1.6615 -3.8407 -4.2394 0.0654 -4.9575 1.9117 -2.3506 -5.0980 1.7735 0.6403 4.8341 -2.0932 -3.0969 2.1194 3.2704 0.5385 5.5045 -0.8100 -2.3105 2.9399 3.9895 3.0604 -1.8976 -2.7886 1.1021 -2.5099 -4.0823 0.0904 -3.9637 1.0062 -2.3259 -4.0204 0.7998 1.1320 3.5849 -2.1647 -2.5542 0.8899 2.7227 1.4824 3.5448 0.2287 -0.4293 1.4494 3.7385 -1.0447 0.1349 -2.1405 -1.8910 0.0370 -0.8977 0.4131 -0.1581 -1.8875 -1.3734 -0.9955 0.0745 1.0281 0.5385 -0.7751 -0.3334 -0.4607 0.9359 0.9440 4.8948 0.3212 -0.9185 2.5965 4.2483 1.7671 -1.5807 -3.3722 -1.1543 -3.4622 0.4468 1.5382 2.8990 -0.9511 -1.2588 0.5821 2.9178 0.8257 0.2288 0.5732

>  <OB_ATOM_TYPES> (1dmpB1)
N.pl3 N.pl3 O.3 O.3 O.2 C.3 C.3 C.3 C.3 C.ar C.ar C.ar C.ar C.ar C.ar C.ar C.ar C.ar C.ar C.ar C.ar C.ar C.ar C.ar C.ar C.ar C.ar C.3 C.3 C.3 C.3 N.am N.am C.ar C.ar C.ar C.ar C.ar C.ar C.2

>  <ENSEMBLE_RMSD> (1dmpB1)
0.913 0.984 1.061 1.102 1.390 1.395 1.484 1.511 1.590 1.607 1.611 1.695 1.775 1.788 1.798 1.825 1.876 1.915 1.929 1.940 1.961 1.961 1.965 1.974 1.994 2.007 2.008 2.033 2.166 2.179 2.229 2.238 2.244 2.302 2.306 2.306 2.312 2.396 2.401 2.585 2.826 3.805 3.855 3.943 3.963 3.977 4.139 4.302 4.309 4.318

$$$$
