
 OpenBabel03071213D

 35 37  0  0  0  0  0  0  0  0999 V2000
   32.8000   10.2190   20.4830 C   0  0  0  0  0
   33.7940   10.4240   28.6730 C   0  0  0  0  0
   33.0480   20.7010   26.4060 N   0  0  0  0  0
   32.5180   15.7230   21.3050 O   0  0  0  0  0
   33.8690   19.3020   24.6870 N   0  0  0  0  0
   31.8780   14.5770   19.6490 O   0  0  0  0  0
   32.5200   14.2960   25.1110 O   0  0  0  0  0
   28.5540   13.6490   27.0570 O   0  0  0  0  0
   27.6690   13.3990   24.6800 O   0  0  0  0  0
   30.9130   17.1700   24.5960 C   0  0  0  0  0
   31.3610   18.5140   24.0090 C   0  0  0  0  0
   30.7090   16.2410   23.4460 C   0  0  0  0  0
   33.5710   11.5970   22.4090 C   0  0  0  0  0
   33.6280   12.9300   23.0790 C   0  0  0  0  0
   31.7960   11.7570   28.2400 C   0  0  0  0  0
   31.5630   12.2080   21.0910 C   0  0  0  0  0
   32.2630    9.8270   26.8440 C   0  0  0  0  0
   31.5800   19.5010   25.0670 N   0  0  0  0  0
   30.8260   12.2470   27.3000 N   0  0  0  0  0
   29.7320   14.8200   25.1830 N   0  0  0  0  0
   30.1090   10.2040   23.8000 C   0  0  0  0  0
   31.0580    9.6760   24.6800 C   0  0  0  0  0
   29.3790   11.3580   24.1210 C   0  0  0  0  0
   32.9310   11.6240   21.0310 C   0  0  0  0  0
   32.8640   10.9560   27.6000 C   0  0  0  0  0
   30.4930   14.8340   23.9360 C   0  0  0  0  0
   31.6320   13.5940   21.7350 C   0  0  0  0  0
   32.3370   13.5310   23.0090 N   0  0  0  0  0
   32.8380   19.8780   25.3590 C   0  0  0  0  0
   32.2420   14.6520   20.8170 C   0  0  0  0  0
   31.8340   14.1520   24.1210 C   0  0  0  0  0
   31.3110   10.3570   25.8650 C   0  0  0  0  0
   30.5960   11.5460   26.2180 C   0  0  0  0  0
   29.5620   11.9600   25.3330 C   0  0  0  0  0
   28.7520   13.5130   25.6380 S   0  0  0  0  0
  1 24  1  0  0  0
  2 25  1  0  0  0
  3 29  1  0  0  0
  4 30  1  0  0  0
  5 29  2  0  0  0
  6 30  2  0  0  0
  7 31  2  0  0  0
  8 35  2  0  0  0
  9 35  2  0  0  0
 10 11  1  0  0  0
 10 12  1  0  0  0
 11 18  1  0  0  0
 12 26  1  0  0  0
 13 14  1  0  0  0
 13 24  1  0  0  0
 14 28  1  0  0  0
 15 19  1  0  0  0
 15 25  1  0  0  0
 16 24  1  0  0  0
 16 27  1  0  0  0
 17 25  1  0  0  0
 17 32  1  0  0  0
 18 29  1  0  0  0
 19 33  1  0  0  0
 20 26  1  0  0  0
 20 35  1  0  0  0
 21 22  1  0  0  0
 21 23  2  0  0  0
 22 32  2  0  0  0
 23 34  1  0  0  0
 26 31  1  0  0  0
 27 28  1  0  0  0
 27 30  1  0  0  0
 28 31  1  0  0  0
 32 33  1  0  0  0
 33 34  2  0  0  0
 34 35  1  0  0  0
M  END
>  <MOLID> (1dwcB1)
1dwcB1

>  <SMILES_CANONICAL> (1dwcB1)
NC(=N)NCCC[C@@H](C(=O)N1CC[C@H](C[C@@H]1C(=O)O)C)NS(=O)(=O)c1cccc2c1NC[C@H](C2)C	

>  <FINGERPRINT> (1dwcB1)
0001000000000001010000001001001000000011100000000101001000000010000000110001000000100001000000000000000110110001000011100000000000100000000010001000000110000000000000000000000100100000010000000000000000000010000000000000000000100000000000000010000000000000000000001110000000001010000100000000000001001000000010001101001000001000001100000010000000000100011100000000001111110000000000000000011000000000100100000001101000000000100000000000000000000001100000000111101000000000110000000000000000011100100000010000101000010000000001001010000100000000000000100000000000000000000000000000100001100000001000000000100000000000000000000110011000000001110000000001010000000001000000000011100000100101000011100011000100100011000000000000000000000001001110110101000000000000001111000000001000000000010000000000100010000001000000000000000100000100010000000000000000000000001000000001000000000000000100001000110010001000000000001000010000010000001000100000011000000000100010111010000000001000111000001000001000100000000000010010011001110000

>  <MACCS166> (1dwcB1)
000000000000000000000000110000011000000000101000011010100111100100100000101111111001100101110110111001011101011100111111111100011110001111111101111111101111111110111000

>  <OB_MW> (1dwcB1)
508.247

>  <OB_logP> (1dwcB1)
3.6511

>  <OB_PSA> (1dwcB1)
186.09

>  <OB_MR> (1dwcB1)
140.497

>  <OB_ATOMIC_CHARGES> (1dwcB1)
0.0001269799 0.0021669424 0.1354054781 -0.2438166896 0.1354054781 -0.2438166896 -0.2732950896 -0.1515432243 -0.1515432243 0.0489250915 0.2204733823 0.0323789499 0.0215849898 0.093919586 0.1125162228 0.0315205366 0.0294529102 -0.0865359607 -0.2365670097 -0.0699112557 0.0011329922 -0.002915501 0.0212571598 0.0039175812 0.0260180851 0.1737655255 0.1790100754 -0.2701432273 0.5345695004 0.3824577497 0.2437376278 -0.0059721976 0.0798977513 0.1379606479 0.0784588251

>  <MCT_HBD> (1dwcB1)
6

>  <MCT_HBA> (1dwcB1)
11

>  <ENSEMBLE_TOTAL> (1dwcB1)
50

>  <ENSEMBLE_COORDS> (1dwcB1)
0.6927 -3.0923 -3.9781 1.6787 -5.2085 3.5963 0.8144 7.0670 0.0067 2.4947 1.7834 -2.1790 -0.3860 7.6799 -1.9171 1.0425 1.7077 -3.9163 2.1059 0.1239 1.2788 -2.5653 -0.0533 3.1539 -2.9175 0.8260 0.8376 -0.4142 3.3947 -0.3562 -0.6606 4.7397 0.2799 0.4717 2.5788 0.5517 1.9501 -2.4188 -1.9711 2.4535 -1.2668 -1.1277 0.2900 -3.1715 3.7624 0.2231 -0.8994 -2.9576 -0.1142 -4.7917 1.9491 -0.9370 5.7095 -0.7592 -0.4462 -2.1651 3.0177 -0.5500 0.7883 1.8196 -2.2587 -3.0903 -0.6833 -1.4572 -4.0654 0.0216 -2.4561 -1.8789 -0.1416 1.3023 -1.9233 -3.2460 0.9482 -4.1475 2.8125 0.0539 1.1290 0.5168 0.6907 0.2157 -2.0421 1.3869 -0.3162 -0.8833 -0.1752 6.8510 -0.9315 1.4189 1.2843 -2.8303 1.2947 0.2791 0.3678 -0.9130 -3.7667 1.2144 -1.0952 -2.4307 1.8176 -1.8570 -1.5380 1.1377 -2.1096 0.0666 1.7786
2.9012 -2.4298 -3.3083 0.7340 -4.7065 5.8823 3.2003 5.7081 1.4808 0.1875 2.3624 -4.2174 2.1185 6.1877 -0.5521 0.6879 0.9681 -5.9346 -2.3843 0.6841 -2.5019 -1.5092 0.5593 2.5917 -3.5069 -0.8552 2.0673 -0.0891 3.1219 0.3682 -0.1128 4.6284 0.4198 -1.3400 2.6040 -0.2984 2.0059 -0.6853 -1.8189 1.1605 0.5657 -1.7091 -0.9301 -3.1394 4.9411 0.8949 -1.1914 -4.0158 0.4462 -4.5250 3.4365 0.9971 5.0842 1.2328 -1.2367 -2.2496 3.8342 -2.4327 0.5011 0.2231 0.1093 -3.1221 -0.0723 0.5238 -3.9247 1.0559 -0.7198 -2.0860 0.1226 2.2077 -1.0903 -3.2640 0.4335 -3.7642 4.7441 -1.2473 1.1012 -0.4195 -0.0067 0.0120 -3.8211 -0.0900 0.3849 -2.4253 2.1003 5.6790 0.6473 0.3516 1.1363 -4.7692 -1.3216 0.7226 -1.8819 0.0630 -3.6513 2.2891 -0.8306 -2.4995 2.5276 -1.1706 -1.7382 1.4571 -2.1949 -0.3525 1.6883
1.0617 -3.9256 -3.5157 1.3538 -5.2505 3.5623 -2.3095 5.9084 1.8543 1.3728 1.5706 -3.6304 -0.1501 6.7334 1.4209 -0.4213 0.4547 -4.4544 3.0163 0.6474 0.1422 -1.3623 0.8938 3.0937 -2.0289 1.5217 0.7693 0.0372 3.4620 -1.1194 -0.0316 4.9384 -0.8242 0.9993 2.7957 -0.1660 2.6377 -2.3530 -2.4453 2.9713 -0.8957 -2.2043 0.7156 -2.8643 3.6038 0.2353 -1.7410 -2.7125 -0.6762 -4.4909 2.3803 -1.2293 5.2109 -0.0555 0.0901 -1.7816 2.8645 0.4164 0.9192 1.2599 -3.0309 -2.5499 0.1232 -2.3401 -3.6299 0.7912 -2.6853 -1.2800 0.3840 1.4128 -2.4721 -3.3266 0.7398 -4.1251 2.7679 0.7217 1.3126 -0.1285 0.5635 -0.2979 -2.3746 1.8236 -0.1993 -1.6570 -1.1631 5.9840 1.0891 0.4490 0.5813 -3.6018 1.9777 0.5697 -0.5129 -1.3584 -3.3683 1.6720 -0.9520 -1.9785 1.9658 -1.6172 -0.9855 1.3249 -1.2394 0.6852 1.6596
2.9571 -2.3335 -2.9208 0.3039 -5.8869 5.2777 2.5780 7.0851 -0.4885 0.5267 2.5988 -3.9974 0.6648 6.3064 -1.6132 1.2477 1.0692 -5.5107 -2.1126 0.8993 -2.0399 -0.4203 0.2024 2.6375 -2.8280 -0.4611 2.8108 0.0629 3.4659 0.8241 -0.0813 4.9688 0.8329 -1.1290 2.8356 0.1438 2.2139 -0.4873 -1.4599 1.4630 0.8261 -1.3679 -0.8016 -3.7400 4.7814 0.9834 -1.0122 -3.5762 -0.3655 -5.3456 2.9593 1.2161 5.5633 0.5787 -0.9961 -2.6930 3.7957 -2.0116 0.6431 0.6878 -0.7090 -3.4852 -0.3373 -0.4608 -4.5236 0.6392 -1.0823 -2.2625 0.0722 2.3367 -0.9591 -2.8945 0.1634 -4.7817 4.2612 -0.9098 1.3458 -0.0015 0.2262 0.2960 -3.4524 0.1964 0.7431 -2.0749 1.4303 6.3210 -0.5588 0.7467 1.3321 -4.4250 -1.0271 0.9798 -1.4647 -0.5977 -4.2676 1.9522 -0.9656 -2.9184 2.4236 -1.2076 -1.9653 1.4871 -1.6113 -0.3588 2.0184
2.4429 -2.5486 -3.6708 -0.0193 -5.5174 5.6861 2.1117 6.0203 -1.4071 0.6073 2.6961 -4.0202 0.2484 6.6596 -0.1208 0.9163 1.3072 -5.7878 -2.1595 1.1057 -2.1136 -1.0534 0.4613 2.8924 -3.2152 -0.6540 2.3103 0.5275 2.8342 1.1239 0.7114 4.2917 1.4606 -0.6340 2.6582 0.1743 2.0245 -0.7918 -1.9903 1.4160 0.5653 -1.6982 -1.3109 -3.5901 4.8492 0.6047 -0.9533 -4.0504 -0.0224 -4.9852 3.2742 1.6702 4.8735 0.5421 -1.3855 -2.5450 3.8451 -2.0335 0.7219 0.5606 0.3198 -3.0590 0.0214 0.4563 -4.0757 1.0394 -0.4007 -1.9568 0.2787 1.9939 -1.1228 -3.4681 -0.0479 -4.4028 4.6708 -0.8089 1.1873 -0.1192 0.0069 0.4030 -3.7314 0.1058 0.6851 -2.3144 1.2777 5.8848 -0.3159 0.5774 1.4837 -4.6243 -1.0433 1.0028 -1.6037 -0.1323 -3.9174 2.2378 -0.8859 -2.6886 2.5554 -1.0068 -1.7527 1.5798 -1.8591 -0.2806 1.9341
2.5304 -2.6232 -1.2160 1.3260 -6.1844 3.5546 1.6746 6.3103 -0.1049 1.5357 2.4928 -2.9547 2.3003 5.4377 -2.1934 2.0402 0.8323 -4.4111 -1.9343 1.5217 -1.8924 -0.2769 0.1687 2.5180 -2.6234 -0.5180 3.0665 -0.9689 4.2841 0.7559 -0.8959 5.2524 -0.4023 -1.9631 3.1914 0.4507 1.7180 -0.5875 -0.0757 1.2366 0.8396 -0.2466 0.1101 -4.0491 3.8289 1.0786 -1.0539 -2.4488 -0.0709 -5.3095 1.7176 0.2193 4.8785 -1.2495 -0.3737 -2.8565 3.1546 -2.2070 0.8488 0.9579 -1.6006 -3.0062 -0.8831 -0.9967 -4.1528 -0.2428 -1.7922 -1.8805 -0.1797 2.1649 -1.1717 -1.3986 0.8544 -4.9351 2.8541 -1.2724 1.8473 0.3999 0.5353 0.3574 -2.5742 0.2126 0.9092 -1.2738 1.4248 5.5555 -1.2332 1.4581 1.2203 -3.4063 -1.0522 1.4300 -1.0393 -0.6367 -4.0992 1.0515 -0.8125 -2.8598 1.8354 -1.3616 -1.7918 1.2040 -1.5809 -0.2987 2.0769
2.7647 -2.8513 -1.8614 0.5604 -6.7386 3.5412 1.0637 7.8881 -0.1477 1.2938 2.2417 -3.4609 0.6252 7.4910 -2.4217 1.5709 0.5119 -4.9027 -1.7583 1.1923 -1.5350 0.3992 -0.2605 2.3889 -1.8705 -0.3602 3.4442 0.3242 3.9723 0.7214 -0.0220 5.4312 0.5497 -0.9168 3.1364 0.5250 2.2963 -0.7621 -0.6324 1.7427 0.6477 -0.6970 -0.0252 -4.3701 3.8798 1.0492 -1.3162 -2.7358 -0.9106 -5.5851 1.9224 0.2261 5.8104 -0.8271 -0.3633 -3.1149 3.2362 -1.5766 0.9412 1.2845 -2.1871 -3.0113 -0.5656 -1.8140 -4.2676 0.0470 -1.9935 -1.8635 0.1024 2.3742 -1.4012 -2.0044 0.2798 -5.4303 2.8455 -0.5613 1.6694 0.4961 0.5005 0.0963 -2.7702 0.4969 0.6758 -1.4445 0.6236 7.0859 -1.1813 1.1943 0.9387 -3.8186 -0.6903 1.1669 -0.9233 -1.2715 -4.2879 1.2773 -1.0087 -3.0330 2.0074 -1.3721 -1.8678 1.4136 -1.0440 -0.3758 2.2471
1.4710 -2.5247 -4.7293 1.1891 -0.6186 5.9821 3.6923 5.0459 0.4629 0.4315 2.7980 -3.5904 3.2262 4.3623 2.6663 0.4593 1.9642 -5.7002 -2.6006 1.1803 -2.1164 -3.7649 -1.7501 1.6718 -3.0736 -2.1639 -0.6900 0.4542 1.6957 1.0873 0.8876 3.0597 1.5568 -0.8937 1.8198 0.4250 1.2482 -1.2674 -2.6205 0.8530 0.0410 -1.9680 -0.8396 -0.7589 4.5817 -0.1163 -0.6429 -4.6274 1.0592 -2.2720 4.1520 2.0600 3.4582 0.8065 -1.3621 -1.0532 3.2590 -2.5372 0.0714 0.3894 0.6015 -3.7716 0.6937 1.1547 -3.4298 1.9853 -0.5782 -3.2534 0.3193 1.2191 -1.1629 -4.1319 0.6684 -0.8772 4.5904 -1.2689 0.5106 -0.2238 -0.5342 0.6392 -3.9330 -0.4184 0.5064 -2.4956 2.9915 4.2978 1.3863 0.1840 1.8381 -4.5136 -1.5195 0.7715 -1.6934 0.4934 -2.5991 2.8100 -0.7837 -1.9806 2.4002 -1.2841 -2.3252 1.1872 -2.7694 -1.6088 0.6201
1.5459 -3.5542 -3.6183 0.1329 -5.6417 4.9330 2.7363 6.4140 2.3153 0.7356 1.8257 -4.4711 1.1152 6.8781 0.6751 0.6217 0.3466 -6.1865 -2.3157 1.2641 -2.7102 -3.1885 -0.7557 1.9062 -2.1858 -1.7840 -0.1404 0.3205 3.0728 0.1785 0.0979 4.2055 1.1495 -0.9848 2.7082 -0.4827 1.2562 -1.6538 -2.0693 0.9296 -0.1803 -1.9448 -1.0940 -4.5007 3.1200 0.0328 -1.7115 -4.2493 1.1037 -3.6493 3.8453 1.3890 4.6969 1.5836 -1.3615 -3.2295 2.4712 -2.2458 0.7337 0.1056 1.4815 -0.1103 2.5278 1.7336 -1.3607 3.2072 0.3390 0.0507 1.8440 1.3165 -2.0666 -3.5251 -0.1790 -4.3049 4.3087 -1.0745 1.2106 -0.6509 -0.3652 -0.2592 -4.0603 -0.2961 0.1236 -2.6642 1.6978 6.0411 1.4859 0.3918 0.6360 -5.0188 -1.3099 0.8912 -2.1080 0.8325 -2.3569 3.1509 -0.4379 -2.1910 2.4169 -0.6415 -1.0154 1.7691 -2.1298 -0.7731 0.9062
0.7700 -3.6614 -4.5167 -2.3988 -4.3425 5.7308 0.6019 6.4974 1.3458 -0.1996 1.7754 -4.2216 -0.3593 5.6661 3.3225 -1.9209 0.3008 -4.2951 3.0326 1.3819 -1.7252 0.5455 0.7168 2.8898 -1.2323 0.8127 1.1271 -0.7313 3.3170 -0.7897 -0.8769 4.6826 -0.1638 0.7152 2.8820 -0.7842 2.2370 -1.7136 -4.1612 2.3060 -0.2229 -3.9098 -2.1663 -2.2088 4.5063 -0.1117 -1.7165 -3.2862 -1.5019 -4.3230 3.4279 -0.7235 4.5700 1.2740 -1.3827 -1.4719 3.5301 1.2527 0.8617 0.4617 0.6222 -3.4691 0.3965 -0.1036 -4.2060 1.4073 0.6666 -2.1290 0.4550 0.8103 -2.1575 -4.4064 -1.5590 -3.5741 4.7415 0.7943 1.3748 -0.8436 0.0195 -0.2418 -2.9529 1.4140 0.1424 -2.8281 -0.1830 5.5920 2.0321 -0.8015 0.6050 -3.9022 1.8711 0.9894 -1.8300 -0.7471 -3.5554 2.3927 -0.7148 -2.0812 2.4731 -0.0054 -1.4162 1.5262 0.0606 0.3228 1.5762
-0.3665 -3.0581 -3.9228 -2.4003 -6.5608 3.9307 1.4489 7.7604 -0.8169 1.1935 2.2407 -3.4348 -0.4604 8.3944 0.3970 -0.7869 1.7264 -4.4142 2.4571 0.7227 0.0987 -1.9898 -0.1935 2.6784 -1.7984 -0.6106 0.2139 -0.1731 3.8180 -0.7351 0.5653 5.1220 -0.9130 0.5488 2.9539 0.2697 1.5287 -1.9367 -2.8248 2.1267 -0.6261 -2.3603 -2.7251 -4.4164 2.7538 -0.7111 -0.8051 -3.0008 -0.4852 -5.4439 2.8483 -0.0554 6.1271 -0.0733 -2.1181 -3.1532 2.3748 -0.0925 0.9188 1.4029 2.0656 -2.7888 1.9342 1.4649 -4.0398 2.3361 1.2797 -1.7314 1.6850 0.2909 -1.7232 -3.6723 -1.7754 -5.2269 3.6081 0.1777 1.5029 0.0757 -0.0892 0.4700 -2.4691 1.1137 0.1828 -1.7141 0.2724 7.4673 -0.1569 0.0582 1.5124 -3.5540 1.3802 0.7812 -0.4926 0.1291 -4.1460 2.4453 -0.7510 -2.9892 2.1832 -0.1627 -1.8249 1.8130 -1.1605 -0.4265 1.5062
0.1189 -3.7392 -4.5907 1.4607 0.3754 5.6489 3.1769 4.9812 3.4250 1.2039 1.6893 -4.3717 1.4592 3.7175 4.4199 0.7792 0.5860 -6.3081 -2.1262 1.5490 -2.6136 -3.4969 -1.1922 1.4865 -2.8044 -1.9121 -0.7993 0.6728 2.0674 0.6938 0.5739 3.1627 1.7242 -0.5439 2.1485 -0.1920 0.5457 -2.1713 -2.7400 0.6974 -0.7260 -2.3130 -0.5640 0.0963 4.2663 -0.6525 -1.4078 -4.8030 1.3141 -1.4851 4.0334 1.9054 3.5947 2.0917 -1.0884 -0.3522 2.9891 -2.2363 0.4362 -0.0093 0.8349 -3.4007 0.7919 1.3983 -2.9004 2.0254 -0.3471 -2.9301 0.3655 0.4339 -2.3054 -4.2436 0.9420 -0.0420 4.2957 -0.9545 0.7742 -0.6603 -0.5146 0.0293 -4.3379 -0.3505 0.0895 -2.9012 2.1319 4.0823 3.3652 0.5563 0.7616 -5.1170 -1.2238 0.8558 -2.1448 0.7454 -1.9678 2.7410 -0.5238 -1.3891 2.2557 -1.0295 -1.8748 1.0947 -2.4945 -1.2006 0.4317
2.4480 -2.7361 -4.0336 -0.1330 -5.7733 5.1345 2.9601 5.5564 0.9264 -0.1594 2.0582 -4.7791 1.7215 6.0577 2.8587 -0.0666 0.5081 -6.4317 -2.5304 0.5875 -2.4289 -3.2269 -0.7874 1.9611 -2.0485 -1.7981 0.0004 0.4976 2.9453 -0.0535 0.7409 4.4158 -0.2831 -0.8375 2.5577 -0.6387 1.8567 -0.8987 -2.4988 1.0977 0.4005 -2.3356 -1.1912 -4.5906 3.2428 0.3449 -1.5002 -4.4023 0.9026 -3.7253 4.2166 0.6602 5.1122 0.9853 -1.4259 -3.2991 2.6209 -2.0891 0.7241 0.2914 1.3523 -0.1474 3.0235 1.5553 -1.4110 3.6968 0.2800 0.0198 2.2342 1.7819 -1.3870 -3.9303 -0.4058 -4.4211 4.5245 -0.9866 1.0533 -0.6334 -0.4574 -0.2341 -4.1590 -0.2689 0.2428 -2.8024 1.7805 5.5869 1.6431 -0.1899 0.7873 -5.2456 -1.3650 0.6193 -2.0362 0.6782 -2.4170 3.5333 -0.5184 -2.2469 2.6849 -0.6762 -1.0563 2.0515 -2.0816 -0.8032 1.0622
2.9530 -3.1992 -2.0369 -0.5536 -5.6809 -0.8122 2.1791 7.3358 0.1861 1.0199 1.7602 -3.8109 0.4849 7.1105 1.8054 1.8821 0.0817 -5.0716 -1.9876 0.3068 -2.1198 -1.7879 1.2462 2.9929 -3.4831 -0.5402 2.5826 -0.0170 3.1933 0.4974 -0.2324 4.6790 0.3789 -1.1808 2.4957 -0.1555 2.0945 -1.2289 -0.8257 1.4498 0.1366 -0.9444 -1.2782 -3.3571 -0.4625 1.1855 -1.8267 -3.0779 0.3467 -4.3759 1.0881 1.0578 5.3320 0.3417 -1.5586 -2.3340 0.5236 -2.2629 0.4877 0.6153 0.4836 -2.2092 4.2085 0.7061 -3.2860 3.2681 -0.3224 -1.1897 3.8716 2.4159 -1.7991 -2.1920 -0.8723 -4.6381 0.2280 -1.0317 1.0010 -0.0189 0.5019 -0.4736 -3.1555 0.2992 0.0796 -1.8297 1.1868 6.6200 0.8235 1.2315 0.4541 -4.1037 -0.9823 0.4225 -1.4187 0.1029 -3.2739 2.0659 -0.8394 -2.1975 1.7039 -1.0017 -1.1813 2.5856 -2.1893 0.0489 2.2688
1.1432 -2.9427 -4.2886 -3.5371 -5.5008 4.3024 0.8256 6.4362 -1.3659 0.5395 2.3555 -3.2248 -0.8087 7.6909 -0.2329 -1.3289 1.1340 -3.6280 3.2081 1.6234 -0.4623 1.0681 -0.7118 3.6963 -0.8302 0.5179 2.6239 -0.7394 2.9496 0.0637 -0.6797 4.1130 -0.8964 0.6402 2.6341 0.5942 2.6683 -1.2404 -3.3692 2.7954 0.1626 -2.8180 -2.6566 -3.2001 4.1358 0.2172 -1.1808 -2.8450 -2.4735 -4.7281 2.2133 -0.8423 5.3421 -0.1477 -1.6381 -2.3473 3.5466 1.4763 0.5526 1.5432 0.1287 -3.3189 -0.1611 -0.8715 -4.1750 0.4343 0.4739 -2.1759 0.4510 1.2694 -1.4945 -3.8887 -2.4425 -4.6401 3.7234 0.9708 1.1882 0.3125 0.3919 0.1892 -2.2191 1.7722 0.4064 -1.8220 -0.3103 6.5388 -0.5877 -0.2274 1.2474 -3.1041 2.1063 1.1219 -0.6802 -1.4476 -3.8350 1.6003 -1.0647 -2.5939 2.3033 -0.1454 -1.7938 1.7055 0.3488 -0.3249 2.4920
2.0954 2.0051 -5.7189 0.8264 -4.5487 6.2712 2.9581 5.8152 -0.1036 1.4485 -1.3107 -1.2568 0.7915 6.5996 0.3639 3.1925 0.0796 -1.6631 -2.4843 -0.3718 -2.4058 -0.6500 0.5260 2.1565 -2.9571 -0.3330 2.6179 -0.5130 3.1073 -0.2195 -0.2427 4.3237 -1.0710 -1.6263 2.2823 -0.8216 0.3462 0.3782 -5.0941 -0.1867 -0.5436 -4.0165 -0.5376 -2.7464 5.2829 1.5428 1.6974 -3.3354 0.0820 -4.7065 3.9199 1.1633 4.6633 -0.9727 -0.8494 -2.0128 4.0701 -2.3076 0.2092 0.2329 -0.5575 -3.8398 0.2779 -0.1531 -4.5417 1.4760 -1.0725 -2.6042 0.3743 1.6618 1.0037 -4.6783 0.5450 -3.7672 5.0129 -1.3051 0.8120 -0.6649 0.9570 0.7930 -2.2673 -0.2538 0.1491 -2.7448 1.5835 5.7366 -0.2065 1.9954 -0.1662 -1.7297 -1.4311 0.1256 -2.0096 -0.2915 -3.9621 2.6814 -0.8120 -2.5862 2.8037 -1.1858 -1.9501 1.6646 -1.7724 -0.3160 1.7739
2.2202 2.6396 -5.2497 0.6487 -4.7069 6.2607 3.0862 5.4232 -0.5403 1.5540 -0.9659 -0.9900 1.6342 5.5651 -2.3841 3.1652 0.6198 -1.1595 -2.3486 -0.3494 -2.4794 -1.0357 0.4326 2.3033 -3.2665 -0.6928 2.4851 -0.9443 3.1284 0.1225 -0.3370 4.1778 -0.7776 -1.8899 2.2457 -0.6594 0.5790 0.8331 -4.8543 0.0801 -0.2145 -3.8796 -0.8204 -3.0023 5.2463 1.5254 2.1251 -2.9412 0.1411 -4.7909 3.8430 1.0602 4.3366 -0.4257 -1.1048 -2.2287 4.0517 -2.4536 0.0519 0.2034 -0.3056 -3.7779 0.2090 0.0804 -4.5024 1.3998 -0.9604 -2.6125 0.3247 1.8037 1.5366 -4.3084 0.3914 -3.8802 5.0259 -1.4405 0.8038 -0.5624 0.9382 1.1175 -1.9708 -0.1534 0.3768 -2.5766 1.8974 5.1376 -1.1817 2.0162 0.2503 -1.3631 -1.3839 0.2071 -1.9554 -0.2158 -4.0156 2.6178 -0.8991 -2.7152 2.7655 -1.2465 -2.0539 1.6327 -2.0156 -0.4995 1.7677
2.9203 -1.7825 -4.3172 -0.6155 -6.8179 4.7172 3.1829 6.3065 -0.4824 0.1927 2.9751 -3.8712 0.9468 6.8084 -1.0115 0.4541 1.9504 -5.8773 -2.2546 1.0536 -2.2120 -2.8954 -2.1560 0.7259 -0.5746 -1.9512 -0.1914 0.3353 2.9879 0.5007 0.1954 4.4889 0.5293 -1.0146 2.3759 0.2216 2.1645 -0.4655 -2.3732 1.3457 0.7180 -1.9031 -0.8050 -5.4378 2.6776 0.7955 -0.5371 -4.4668 0.0194 -4.4292 4.7717 1.5138 5.0864 0.5301 -1.0689 -4.1100 2.1530 -1.9089 0.1492 0.4156 -0.1480 -0.6528 4.3920 0.0591 -1.9746 4.9421 -0.6227 -0.5182 3.1435 2.1962 -0.5318 -3.8856 -0.9377 -5.4441 4.1845 -0.8597 0.9482 -0.2473 -0.0661 0.5959 -3.9365 0.0172 0.6726 -2.4899 1.8239 6.0965 -0.3624 0.2397 1.8848 -4.6733 -1.1278 0.9104 -1.7394 -0.2135 -3.0667 4.2066 -0.7524 -2.9411 2.8378 -0.9428 -1.6891 2.3471 -1.5944 -1.5032 0.7441
2.8500 -3.0786 -2.6340 -3.6269 -4.8543 1.3247 1.3973 7.3305 2.1606 -0.9199 0.6819 -4.3441 -0.2788 5.7092 2.4775 -0.6039 -1.3853 -5.2246 -2.0634 0.1718 -0.9250 1.5720 1.2159 2.3274 -0.3803 0.4591 3.6905 0.4205 3.7984 -0.6693 -0.0264 5.2131 -0.3923 -0.7401 2.8605 -0.4544 2.3261 -0.7867 -1.8819 1.3934 0.3977 -2.0274 -2.8366 -2.5192 1.3744 0.5176 -2.2815 -2.7558 -1.2173 -4.3551 1.0889 0.9612 5.8486 0.4544 -1.7528 -1.6344 1.7595 -0.7559 1.1945 1.2873 2.2476 -2.9718 1.7979 1.1611 -3.8768 1.4954 1.9907 -1.6714 2.0083 1.9743 -1.8752 -2.8752 -2.5083 -3.9430 1.7630 -0.2398 1.4892 -0.0636 -0.4235 -1.0922 -2.8243 0.0122 -0.0401 -1.9272 0.6254 6.2718 1.7267 -0.6286 -0.6384 -4.2545 -0.8746 0.4827 -0.9985 -0.1021 -3.4213 1.4251 -0.4144 -2.0061 1.7081 0.6251 -1.1748 1.9680 0.3191 0.4816 2.4146
2.8500 -3.0786 -2.6340 -3.6269 -4.8543 1.3248 1.3972 7.3305 2.1607 -0.9199 0.6818 -4.3442 -0.2789 5.7091 2.4775 -0.6038 -1.3853 -5.2246 -2.0634 0.1717 -0.9250 1.5721 1.2159 2.3274 -0.3803 0.4591 3.6905 0.4204 3.7984 -0.6693 -0.0265 5.2131 -0.3923 -0.7400 2.8605 -0.4545 2.3261 -0.7867 -1.8820 1.3934 0.3977 -2.0274 -2.8366 -2.5192 1.3743 0.5177 -2.2815 -2.7558 -1.2172 -4.3551 1.0888 0.9612 5.8487 0.4544 -1.7528 -1.6345 1.7596 -0.7558 1.1946 1.2873 2.2476 -2.9718 1.7979 1.1610 -3.8767 1.4954 1.9907 -1.6714 2.0083 1.9743 -1.8753 -2.8752 -2.5083 -3.9431 1.7630 -0.2398 1.4892 -0.0637 -0.4235 -1.0922 -2.8243 0.0123 -0.0401 -1.9272 0.6253 6.2718 1.7267 -0.6286 -0.6384 -4.2545 -0.8746 0.4826 -0.9985 -0.1021 -3.4214 1.4251 -0.4144 -2.0061 1.7081 0.6251 -1.1747 1.9680 0.3191 0.4816 2.4146
2.7938 -3.2695 -2.1441 -3.6483 -4.6938 -0.5872 -0.4141 7.3861 0.1441 -0.1334 1.2187 -3.8370 1.4782 8.0833 1.3520 -0.1834 -0.7178 -5.0150 -1.9356 0.5730 -0.9440 1.0461 0.6269 3.1989 -1.1876 -0.2165 3.9332 0.9665 3.5065 0.2415 0.7968 4.8995 -0.3117 -0.3721 2.8155 0.3014 2.3943 -1.0571 -1.1405 1.6604 0.2585 -1.2711 -2.8998 -2.5053 0.2734 0.6718 -2.1135 -2.6294 -1.3124 -4.3884 0.1595 1.2558 5.8407 0.6887 -2.0205 -1.8333 1.2124 -0.9724 0.9262 1.6746 1.7035 -3.4939 2.2872 0.7711 -4.2232 1.4558 1.4186 -2.2357 2.6566 2.1516 -1.9215 -2.3597 -2.7546 -4.0040 0.4120 -0.1697 1.3331 0.5070 -0.1302 -0.8257 -2.5960 0.2462 0.0056 -1.4719 0.8128 7.1485 0.7305 -0.1260 -0.1318 -3.9414 -0.7304 0.6135 -0.6993 -0.3838 -3.6544 1.0689 -0.7493 -2.2988 1.5230 0.1652 -1.6178 2.2559 -0.2091 -0.0335 2.8718
3.6193 -1.9932 -1.7759 -3.4884 -5.2775 -0.4270 1.5202 6.9783 0.1493 -0.3921 1.6767 -3.4883 2.5007 6.2891 -1.8718 0.4885 0.0250 -4.7700 -2.0484 0.2089 -0.8039 0.4444 0.5319 3.5070 -1.6696 -0.6976 4.0169 -0.2010 3.7764 0.9154 -0.3752 4.9370 -0.0344 -1.2825 2.7519 0.6787 2.5311 -0.0910 -0.6498 1.4956 1.0044 -0.7760 -3.0355 -3.0154 0.4359 1.3136 -1.3911 -2.4138 -1.1800 -4.6179 0.1657 0.7933 5.0079 -0.8886 -2.2049 -2.2194 1.3178 -1.5156 0.6712 1.8810 1.7784 -3.3127 2.1613 0.9322 -4.1523 1.3416 1.3148 -2.1339 2.6057 2.6537 -0.8485 -1.9552 -2.6434 -4.4725 0.5274 -0.7203 1.3583 0.8457 0.2009 -0.3593 -2.3935 0.2251 0.4306 -1.1803 1.6266 6.1107 -0.9193 0.1540 0.4497 -3.6715 -0.9398 0.6098 -0.4506 -0.3142 -3.7582 1.0261 -0.8630 -2.4938 1.5533 -0.0422 -1.7129 2.2988 -0.6765 -0.2706 3.0422
3.1538 -2.4646 -1.8360 -3.8037 -5.0913 -0.3323 0.4126 7.0318 -1.5816 -0.2222 1.7722 -3.5259 2.5881 7.3652 -0.7608 0.4610 0.0181 -4.7938 -2.0289 0.3014 -0.6287 0.8121 0.3028 3.4544 -1.3333 -0.8059 4.0937 0.1965 3.6833 1.0273 0.1055 4.7669 -0.0172 -0.9676 2.7378 0.8662 2.4445 -0.3501 -0.7942 1.5530 0.8679 -0.9044 -3.1343 -2.8971 0.5634 0.9516 -1.5335 -2.4343 -1.4162 -4.6013 0.0850 1.2257 5.6715 0.1423 -2.1835 -2.1879 1.3975 -1.2529 0.6270 1.9959 1.7737 -3.5625 1.8687 0.8098 -4.3152 1.0962 1.4282 -2.3729 2.3858 2.3798 -1.1882 -2.0549 -2.8320 -4.3783 0.5736 -0.4904 1.3046 0.9292 0.0243 -0.3321 -2.4339 0.1995 0.4613 -1.2360 1.4611 6.7078 -0.7436 0.1445 0.4793 -3.7050 -0.8715 0.6317 -0.3710 -0.4278 -3.8291 0.8953 -0.8480 -2.5545 1.5103 0.0803 -1.8576 2.2121 -0.3931 -0.4083 3.0566
2.6429 0.4785 -5.3038 -0.3433 -6.3125 4.0206 1.8185 6.8054 -1.1835 -0.4389 -2.0757 -1.4296 0.2999 6.5271 0.5921 1.8051 -2.2349 -1.7060 -2.5529 1.4832 -2.1323 -3.0217 -0.2167 2.5426 -2.7259 -1.3071 0.3138 0.9998 2.8072 -0.1429 1.4059 3.8516 0.8660 -0.5055 2.7523 -0.2361 0.2177 0.5088 -4.8395 -0.8874 0.0621 -3.9032 -1.5621 -4.6610 2.6468 1.8567 0.3137 -2.9673 0.8137 -4.2925 3.1937 2.0365 4.9577 0.1736 -1.6941 -3.2550 2.3064 -2.0605 1.1144 0.6189 1.6260 -0.6528 2.4897 1.7403 -2.0375 2.8873 0.4547 -0.1925 2.0253 1.5549 -0.0547 -4.4071 -0.4983 -4.8457 3.7062 -0.9573 1.3153 -0.3378 0.7329 -0.0849 -2.0259 -0.5508 0.3789 -2.5293 1.3202 6.1086 -0.1016 0.7789 -1.5682 -1.7311 -1.4665 1.0619 -1.7386 0.6837 -2.8627 2.7868 -0.6195 -2.3719 2.2934 -0.6926 -1.0746 1.9007 -2.2111 -0.4260 1.3517
-0.1192 1.5607 -5.6738 -2.0379 -6.6389 4.1836 1.6633 7.5059 -1.3754 0.5482 -2.3799 -1.7663 0.1788 8.5639 0.1066 1.6919 -2.4364 -3.7241 2.0709 0.8254 -0.1935 -1.7689 -0.1965 3.1877 -2.0846 -0.5214 0.7218 -0.5102 3.9327 -0.4891 0.3757 5.0594 -0.9665 0.2611 3.0268 0.4404 -1.0224 1.2638 -3.4019 -0.9774 0.4383 -2.1347 -2.5621 -4.4455 3.1738 1.2647 0.4153 -3.9833 -0.3612 -5.4836 2.7900 0.1403 6.2260 -0.1384 -2.0238 -3.1644 2.7501 -0.1544 0.9483 1.5932 2.0066 -2.7972 1.5401 1.4694 -4.0681 1.9680 1.2118 -1.7174 1.5276 -0.1519 0.6446 -4.4755 -1.4752 -5.2950 3.7959 -0.1657 1.5868 0.2611 1.3253 -0.3010 -2.6463 0.3959 0.2677 -1.6945 0.6293 7.4786 -0.4610 1.2017 -1.7991 -2.8011 0.8930 0.8700 -0.5475 0.1804 -4.1704 2.3358 -0.7133 -2.9941 2.3178 -0.1837 -1.8124 1.9142 -1.1966 -0.3928 1.8651
3.3965 -1.9801 -3.0108 -4.4530 -4.9565 1.2132 2.5418 7.3085 -0.7038 -0.4968 1.8721 -3.6257 0.2127 7.6304 -0.6571 -0.2773 0.1752 -5.1145 -1.8986 0.1392 -0.6795 1.6211 0.1376 2.6183 -0.2623 -0.4797 4.1420 0.2516 3.6421 0.9261 -0.0557 4.8738 0.1133 -0.8429 2.6253 0.7231 2.6160 -0.1449 -1.5574 1.5809 0.9424 -1.3591 -3.3090 -2.7832 1.4804 1.0069 -1.3654 -3.0366 -1.9934 -4.8175 1.0255 1.1918 5.4933 -0.2811 -2.1067 -2.1213 1.9539 -0.7933 0.5000 1.8533 1.6399 -4.0630 1.8331 0.4267 -4.7524 1.4538 1.5862 -2.7681 2.1804 2.4208 -0.8364 -2.8908 -3.2145 -4.2714 1.7332 -0.2526 1.2355 0.6965 -0.0454 -0.3089 -2.7527 0.2454 0.3942 -1.5190 1.2496 6.8494 -0.5451 -0.2606 0.5808 -3.9590 -0.7407 0.5359 -0.5533 -0.7511 -4.1036 1.4445 -0.8419 -2.6904 1.8638 0.3145 -2.0633 2.1928 0.2934 -0.4296 2.7985
1.1278 -3.8173 -2.7742 -4.3838 -3.5055 2.4260 0.2474 6.2317 2.6819 -0.1060 1.3556 -4.2240 -1.0032 7.5726 1.2140 -1.0937 -0.4210 -5.2303 -1.6724 1.1410 -0.7289 2.7348 -0.0858 1.0598 1.6386 -0.2013 3.3008 1.1195 3.9284 -0.3860 1.5616 5.0249 0.5524 0.1892 2.9922 0.3425 1.7719 -1.6050 -1.8961 1.5218 -0.1121 -1.9322 -2.7440 -1.7067 2.0182 -0.5110 -1.9755 -2.8633 -2.1579 -4.0410 1.4926 0.7043 6.1825 0.3836 -1.3351 -1.3610 2.0125 0.3668 0.8319 1.3626 1.6146 -4.2341 1.0895 0.2171 -4.5960 1.1746 1.9797 -2.9536 1.2568 0.9612 -2.3286 -2.9497 -2.9198 -3.1460 2.4463 0.5558 1.5478 0.0866 -0.7545 -0.4778 -2.8329 0.0990 0.1634 -1.8543 -0.0654 6.6880 1.4168 -0.6638 0.1211 -4.2202 -0.4639 0.9444 -0.8564 -0.7163 -3.6593 1.4182 -0.3352 -2.2495 1.6382 0.9774 -1.9324 1.5205 1.5377 -0.3161 1.8540
1.3984 1.2213 -4.8398 1.3260 -5.9363 1.8963 -1.1337 6.3936 -2.3938 2.6327 -1.7902 -0.3152 -0.2853 4.9031 -4.0002 4.0975 -1.4399 -2.0115 2.3093 1.3543 1.3029 -1.6689 -0.5083 4.1717 -2.7438 1.0129 2.5094 -1.2781 3.3489 0.3573 -0.7036 4.5378 -0.3719 -0.2569 2.8073 1.3274 0.1513 0.7863 -2.7554 0.1862 0.1401 -1.3859 0.4546 -3.9114 3.0102 2.6435 0.9335 -2.7281 -0.7561 -4.8763 1.0923 -0.5833 4.2031 -1.7761 -0.2658 -2.6641 2.8272 -0.2092 0.6326 2.4071 -3.1909 -2.2584 -0.1887 -2.4220 -3.4754 -0.0517 -3.0046 -1.2536 0.6813 1.4264 0.4956 -3.5181 0.6131 -4.6242 1.6856 -0.0871 1.3215 1.1066 2.6567 0.3785 -1.3157 1.3751 0.5569 -0.6634 -0.6366 5.1619 -2.7704 3.1970 -1.0346 -1.2874 1.3226 1.0642 0.6270 -1.5263 -3.6060 0.9424 -1.2720 -2.4962 1.8832 -2.0114 -1.3679 1.7371 -1.7548 -0.0106 2.8080
1.9351 1.3184 -5.7923 -0.1313 -6.2404 4.7187 2.7837 6.4691 -1.4803 0.6856 -1.6211 -1.0236 1.6072 6.9182 0.5062 2.7205 -0.9490 -1.7650 -2.8531 0.3227 -2.1015 -3.2488 -0.8886 2.3137 -2.3932 -1.8521 0.1713 0.1199 2.9728 0.1002 0.1476 4.4796 0.0808 -1.1671 2.4893 -0.5201 -0.1666 0.2961 -5.0054 -0.8390 -0.4834 -3.8956 -1.3243 -4.8646 3.0568 1.5471 1.0954 -3.3662 0.9249 -4.1964 3.8148 1.2716 4.9089 -0.7240 -1.5406 -3.5222 2.5518 -2.2583 0.6491 0.5782 1.4565 -0.5669 2.8237 1.6608 -1.8873 3.3786 0.3084 -0.2817 2.1894 1.3115 0.4575 -4.7217 -0.3813 -4.8332 4.2382 -1.2402 0.9831 -0.4333 0.7788 0.4217 -2.2447 -0.5988 0.1561 -2.6183 1.8611 6.1402 -0.5075 1.5104 -0.7815 -1.6947 -1.6711 0.4508 -1.7855 0.7095 -2.8296 3.2547 -0.5658 -2.5305 2.5766 -0.7285 -1.2882 2.0544 -2.2324 -0.9125 1.2716
-1.8604 0.1857 -6.2413 -2.1955 -4.2879 5.8639 0.0202 6.5810 1.1932 1.9549 -2.2352 -2.9191 -0.1925 5.7143 3.3667 2.1287 -2.2684 -5.1811 2.3205 1.4988 -2.1853 1.0729 0.8361 2.9059 -1.0632 0.7206 1.6043 -1.3332 3.0820 -0.4130 -1.4633 4.4740 0.1561 0.0990 2.8045 -0.8064 -1.6069 -0.0051 -3.7997 -0.7152 -0.4449 -2.6586 -1.9506 -2.1999 4.5736 0.4116 0.0576 -5.2949 -1.0105 -4.3042 3.6948 -0.9688 4.4832 1.5194 -1.1083 -1.4534 3.6573 1.1693 0.9614 0.3730 1.4342 -3.4184 0.9239 0.6555 -4.1656 1.8875 1.3129 -2.0827 0.8622 -1.0226 -0.4115 -5.1373 -1.2860 -3.5050 4.9506 0.3581 1.3153 -0.8092 1.2879 -0.2717 -4.1008 0.6319 0.0598 -2.8553 -0.3858 5.6045 2.0810 1.8075 -1.6901 -4.1512 1.2197 0.9803 -2.0014 -0.1848 -3.5289 2.7221 -0.3001 -2.0580 2.7001 0.4252 -1.3824 1.7724 0.3376 0.3544 1.7467
-1.0139 2.0963 -5.5648 -2.9630 -5.7256 5.3146 -0.6959 7.8309 0.1746 1.7842 -1.8320 -2.8785 -0.8197 6.8592 -1.9633 2.4087 -1.1738 -4.9571 2.8237 0.8734 -0.8194 0.7345 -0.3958 3.7479 -1.1996 0.1632 2.2523 -0.3826 3.2741 -0.0335 0.1980 4.4231 -0.8218 0.7309 2.4954 0.6251 -1.1236 1.2559 -3.2460 -0.4910 0.3512 -2.2085 -1.7551 -3.5880 5.0533 1.0587 1.3346 -4.4686 -1.4462 -5.3877 3.3950 -0.0083 5.6500 -0.0794 -1.2109 -2.6316 4.1056 1.2045 0.2316 1.3370 0.2076 -3.8752 0.3289 -0.4180 -4.8109 1.2369 0.3796 -2.5991 0.7063 -0.4351 1.1046 -4.5865 -2.4404 -4.7196 4.3199 0.6610 1.0382 0.2275 1.6967 0.5078 -3.3680 0.9386 0.5989 -2.1370 -0.5228 6.7747 -0.6977 1.9835 -0.9010 -3.8412 1.6003 0.8072 -0.9358 -0.8280 -4.4087 2.4527 -0.6802 -3.0016 2.8744 -0.0711 -2.1496 2.0119 0.0947 -0.4698 2.4435
2.9419 1.2492 -4.7302 -0.4866 -6.7255 3.4627 2.0189 5.6293 -2.4676 -0.3029 -1.8428 -1.3988 0.4136 6.4030 -0.9314 1.9537 -1.9205 -1.6003 -2.4787 1.7270 -1.8255 -3.2206 -0.5361 2.5639 -2.7514 -1.3400 0.2448 0.8971 2.8512 0.5758 1.3142 4.2786 0.8247 -0.5948 2.7901 0.3542 0.4911 1.1751 -4.4292 -0.6571 0.5812 -3.6385 -1.6550 -4.9388 2.2202 2.0090 0.7753 -2.4904 0.6682 -4.5979 2.9716 2.0362 4.7703 -0.3314 -1.8025 -3.5038 2.0481 -2.1655 1.0361 0.8864 1.4305 -0.8860 2.7749 1.5544 -2.3072 3.0058 0.2795 -0.3919 2.2947 1.8128 0.5872 -3.9824 -0.6597 -5.2341 3.3204 -1.0036 1.3703 0.0429 0.8397 0.2310 -1.6869 -0.4233 0.7233 -2.2149 1.4245 5.6341 -1.2219 0.9126 -1.2769 -1.5834 -1.4084 1.2841 -1.4116 0.5275 -3.1316 2.7345 -0.7533 -2.6064 2.2186 -0.8340 -1.2717 1.9852 -2.3281 -0.5851 1.4151
-0.4412 1.9544 -5.8769 -2.7880 -5.0493 5.6281 0.3517 6.7713 -0.1300 1.2999 -2.3467 -2.8260 -1.9181 7.3493 -0.3270 1.7649 -2.0680 -5.0287 3.1470 0.6158 -1.2349 1.6878 -0.8239 3.4260 -0.2239 0.6235 2.7130 -0.2335 2.9827 -0.0146 -0.3732 4.2385 0.8084 1.1435 2.4014 0.1869 -0.7235 1.3504 -3.4998 -0.3011 0.4329 -2.3695 -1.7672 -2.8824 5.0520 1.3824 0.7652 -4.7224 -2.3898 -4.4608 3.2595 -1.2927 5.1287 0.1302 -0.9355 -2.1604 4.1075 1.7577 0.2599 1.1461 -0.6105 -3.3746 0.0815 -1.4150 -4.1232 1.0223 0.0121 -2.2549 0.4816 -0.1222 0.9231 -4.8231 -1.8583 -4.3435 4.6724 1.0946 0.9030 -0.0048 1.7933 -0.1333 -3.5716 1.1431 0.2718 -2.3434 -0.9929 6.4593 -0.0944 1.6026 -1.5948 -3.9112 1.9166 0.5690 -1.2302 -1.5414 -3.7018 2.2930 -0.8382 -2.4915 2.7603 -0.0981 -1.8011 1.8551 0.7675 -0.3902 2.3845
0.0215 -3.1336 -5.4175 -3.1157 0.5509 5.1085 0.8192 5.9011 2.7003 0.2641 1.7924 -3.1444 -1.3135 6.5299 1.9420 -1.7474 0.7513 -3.2428 3.5765 0.2143 -1.4842 1.8050 -2.8707 -0.2833 1.9516 -2.6999 2.1992 0.3537 2.3326 0.4939 0.5535 3.3842 1.5573 1.6826 1.7056 0.1576 1.9041 -1.7516 -4.6296 2.3179 -0.5072 -3.8737 -1.1018 0.3405 3.6899 -0.2698 -1.7393 -3.4009 -3.1880 -0.8009 3.0445 -0.4223 4.4354 1.3566 -0.3532 -0.5324 2.8011 2.0401 -0.5909 0.7995 -2.3291 -3.4271 0.4436 -3.0570 -2.6009 1.3798 -1.0091 -3.2456 0.2877 0.3985 -1.8300 -4.7590 -2.3285 -0.3739 4.2141 1.4974 0.2679 -0.2723 0.1948 -0.5383 -2.5945 1.6460 -0.4405 -2.5902 -0.3486 5.6535 2.0067 -0.5402 0.7085 -3.0410 2.3591 0.0319 -1.4947 -2.4216 -1.6480 2.0842 -0.9622 -1.4509 1.9538 -0.3063 -2.2366 1.0647 1.4288 -2.1816 0.9432
3.4242 0.7742 -5.8757 0.5004 -4.8187 5.9279 2.7269 5.4821 1.9266 -0.4937 -2.0310 -3.3398 1.0214 6.2710 0.5111 1.6821 -2.5626 -2.9888 -2.1388 1.5125 -2.9961 -1.4613 -2.7840 -0.1428 0.5940 -1.3665 0.0887 0.0002 2.5504 0.4345 -0.4040 3.8257 1.1305 -1.1638 2.0466 -0.3812 1.0061 1.1602 -5.6018 -0.2640 0.7321 -4.8994 0.7462 -3.9292 3.6361 2.3371 0.1426 -3.7500 -0.4665 -2.6220 5.3400 0.7279 4.3415 1.8720 0.1287 -3.1279 2.5937 -1.6047 -0.3084 -0.7109 -2.4559 0.0718 3.5501 -1.8997 -0.7727 4.5837 -2.1323 -0.1500 2.2668 2.1575 0.2421 -5.2530 -0.1678 -4.0183 4.8384 -0.7575 0.8165 -1.1561 1.0499 -0.2256 -3.0315 -0.0488 0.6225 -3.4694 1.4623 5.4050 1.3791 0.8073 -1.7180 -3.1363 -1.0819 1.0054 -2.6204 -1.0552 -1.7695 4.2660 -0.6990 -2.0419 2.8593 -1.2330 -1.2324 1.9097 -0.8441 -1.5237 0.2390
-0.3717 0.0932 -5.5076 -1.2919 -6.6646 2.7236 -2.3087 7.2355 -1.6125 3.1002 -1.9350 -1.5430 -0.6229 7.0216 0.0131 3.4929 -1.9554 -3.7777 2.8373 1.6459 -0.6115 1.9009 -1.1815 1.4404 1.2644 -0.2178 3.6577 -1.2859 3.0220 0.0358 -1.6418 4.3862 0.5752 0.2139 2.8567 0.0286 -0.5645 -0.0978 -3.0555 0.1357 -0.4959 -1.7729 0.0806 -4.6510 3.1291 1.6730 0.2336 -4.1318 -2.3162 -4.4176 2.6032 -2.0846 5.2204 -0.5236 0.2845 -3.2560 2.7817 1.0539 1.2054 1.5788 -2.9541 -0.7994 1.6411 -3.1455 -2.2061 1.9165 -1.7297 -0.2622 1.7531 0.3047 -0.4094 -4.2565 -1.0668 -5.2267 2.3290 0.5830 1.4011 0.1932 2.3458 -0.0559 -2.8017 1.4357 0.1479 -1.6938 -1.6186 6.5158 -0.6577 3.0134 -1.4124 -2.7905 1.7432 1.0950 -0.7266 -2.1075 -2.9716 2.2966 -0.7496 -2.4026 2.4118 -0.5919 -1.0873 2.1171 0.9887 -0.3741 2.2371
-0.4629 -0.6346 -7.0334 1.5531 -1.0202 6.2663 -1.6503 4.2686 2.3304 2.8586 1.0101 -2.8939 0.5838 4.8271 1.8526 1.4171 2.4548 -3.8811 2.1016 -2.6103 -1.6482 -2.5170 -1.3167 -0.6799 -2.1941 -3.1646 0.9673 0.7889 1.3019 -0.2376 0.9853 2.0892 1.0320 1.2362 -0.1262 -0.0456 1.0818 -1.8398 -5.5410 1.9645 -1.7623 -4.3143 1.1271 -1.5721 3.8910 -0.1509 0.1887 -4.7313 -0.1695 0.2097 4.9951 -0.2905 2.6585 1.4112 0.1172 -1.6542 2.8487 -0.1645 -2.1031 -0.1248 -3.2171 0.9392 2.8534 -2.2595 0.9476 3.9363 -3.0182 0.1320 1.8005 0.5326 -0.4776 -5.9099 0.4976 -1.1330 5.1951 0.4232 -1.0272 -0.9461 0.6881 0.1821 -3.4663 1.2474 -1.1364 -3.2214 -0.3868 3.9586 1.8681 1.6767 1.3300 -3.4717 1.3552 -1.6787 -1.9464 -1.1713 0.1589 3.8903 -0.9561 -0.7751 2.7647 -1.8596 -0.7463 1.7543 -1.7677 -1.8787 0.4352
0.1071 -2.7479 -5.5772 -3.2146 -5.2300 4.7083 -1.1934 6.9818 0.2324 1.2165 2.3641 -3.8434 -1.6014 5.5400 2.0454 -0.8566 1.7278 -4.5046 3.6340 0.5430 -1.4793 0.5570 -2.1385 0.0520 2.1447 -2.2261 1.9859 -0.0842 2.5231 -0.6653 -0.6567 3.3707 0.4387 1.2945 2.0511 -0.2771 2.1205 -1.7063 -4.6110 2.7054 -0.4919 -3.9223 -1.1428 -4.5146 3.5744 -0.1609 -0.9846 -3.8726 -2.6211 -2.8325 4.6078 -0.7218 4.7436 -0.0170 -0.5084 -3.4672 2.7941 1.9287 -0.0723 0.6799 -1.5984 0.5797 3.2883 -2.2953 -0.4722 3.9955 -0.5687 0.2707 2.4848 0.6868 -1.4655 -5.0346 -2.5816 -4.1514 3.8657 1.4125 0.5701 -0.5432 0.4559 0.2023 -3.1548 1.8484 -0.0655 -2.8338 -1.1934 5.7349 0.8234 0.1935 1.4812 -3.9246 2.4289 0.3640 -1.6461 -1.9157 -1.7544 3.8530 -0.8031 -2.1173 2.9516 -0.1600 -1.1107 2.3062 1.1437 -1.4989 1.2197
1.0749 -3.5555 -3.3185 -2.8865 -5.7272 2.5276 -3.4688 4.2690 -1.2521 0.6113 2.0702 -3.0321 -2.4976 5.5748 0.4456 -1.0323 0.5623 -3.4466 3.9418 1.0925 -0.5813 2.0388 -1.5855 1.1688 1.6384 -0.6959 3.4698 0.5115 3.5753 0.6933 0.0682 4.5560 -0.3640 1.8326 2.9606 0.3028 2.7695 -1.7921 -2.9899 3.0083 -0.3051 -2.8339 -0.9528 -4.2597 2.9779 0.4445 -1.4855 -2.1289 -3.0804 -3.2865 2.2029 -1.1982 4.1109 -0.9089 -0.2594 -3.0471 2.5816 2.0543 0.9152 1.5782 -2.3931 0.2797 1.0960 -3.0641 -0.9671 1.3881 -1.0732 0.3869 1.3100 1.3013 -2.0674 -3.2366 -2.1582 -4.4810 2.0914 1.7126 1.4552 0.2483 0.7300 -0.0151 -1.8828 2.1587 0.2355 -1.7917 -2.3834 4.7092 -0.5216 0.0123 0.8641 -2.8838 2.7325 0.9258 -0.7335 -2.3742 -2.0115 1.8791 -0.9181 -1.9177 2.1061 -0.3082 -0.7429 1.8035 1.4069 -0.6005 2.0352
-0.1986 2.5135 -5.2196 -2.6227 -6.1053 4.7563 0.2076 4.8329 -2.5996 1.9437 -1.6076 -2.2659 -2.0208 5.2774 -3.2008 2.7733 -1.0483 -4.3010 3.0348 1.4978 -0.2250 1.1776 -0.9178 3.9050 -0.7714 0.4504 3.1356 -0.6781 3.2323 0.8142 -0.5710 4.5431 0.0735 0.6959 2.7216 1.1728 -0.6190 1.6619 -2.9448 -0.1476 0.7661 -1.8195 -1.9274 -3.7380 4.7261 1.6883 1.6007 -3.9233 -2.2290 -4.9599 2.6051 -1.5024 4.5155 -1.0367 -1.1732 -2.7191 4.0184 1.4207 0.4964 1.8293 -0.5229 -2.9764 -0.1446 -1.2413 -4.0124 0.5629 -0.0685 -1.9079 0.5278 0.2036 1.4746 -4.2023 -1.7767 -5.0800 4.0443 0.8355 1.2835 0.7273 2.1408 0.7197 -2.7743 1.2852 0.8967 -1.6194 -1.1396 4.9166 -2.3090 2.3065 -0.7166 -3.2187 1.8460 1.2291 -0.3951 -1.4666 -3.8998 1.8835 -0.9594 -2.7402 2.6444 -0.2784 -1.7873 1.9581 0.3552 -0.4128 2.8152
3.1832 1.7118 -4.1369 -0.9137 -5.8233 -0.7112 1.9651 4.8189 -2.8471 1.7445 -1.3539 0.3109 -0.3538 5.2054 -2.7941 3.5290 0.0362 0.1689 -1.9722 -0.1083 -1.7795 -1.7690 1.1468 3.2125 -3.5552 -0.5605 2.8401 -0.2101 3.2392 0.5566 -0.2488 4.6560 0.0391 -1.3291 2.4394 -0.0664 1.2627 0.2057 -3.7411 0.5867 -0.7038 -2.7333 -1.6751 -3.5153 -0.2819 2.2121 1.5405 -1.8684 0.0962 -4.5144 1.1198 0.9085 4.8887 -0.8017 -1.8884 -2.4990 0.7330 -2.3561 0.4551 0.8436 0.6334 -2.2442 4.1118 0.7232 -3.3547 3.1913 -0.2393 -1.2541 3.8706 2.5265 0.7871 -3.1449 -1.1810 -4.7931 0.3582 -1.1248 0.9655 0.2054 1.4426 0.6923 -0.8710 0.3244 0.0064 -1.4955 0.7696 4.9762 -2.1755 2.3661 -0.2271 -0.1070 -0.9934 0.2401 -1.1192 -0.0637 -3.4031 2.1019 -1.0520 -2.3406 1.8308 -1.0956 -1.2984 2.6963 -2.2529 -0.0174 2.4840
-0.1899 3.0117 -5.9214 1.4527 -1.5931 6.5404 -0.4356 4.7189 3.2013 1.3398 -2.1979 -4.7234 1.2374 3.0888 2.9302 2.1962 -0.9575 -6.4190 2.4620 -0.6272 -1.6785 -2.1400 -2.0421 -0.6674 -0.8444 -3.7041 0.6732 -0.0685 2.1037 -0.3344 0.8143 3.2536 0.0867 0.5645 0.8067 0.1069 -0.8630 1.4479 -4.1318 -0.6113 0.1027 -3.4806 1.3169 -1.7234 4.0778 1.4766 1.4315 -5.0169 -0.5703 -0.7997 5.3664 0.1078 4.0528 1.0669 0.4376 -1.9103 2.9368 0.3108 -1.5842 -0.1258 -3.6217 -0.7580 3.1092 -2.7589 -0.6299 4.2623 -3.1169 -1.2061 1.9495 0.0114 1.6280 -5.3562 0.5349 -1.8328 5.3681 0.2211 -0.3048 -0.8563 1.7332 0.1192 -4.2968 0.8047 -0.0590 -3.1965 0.3589 3.9044 2.4196 1.7690 -1.0371 -5.2742 1.2845 -0.3733 -1.9323 -1.4557 -0.9500 4.1747 -0.8853 -1.4820 2.9192 -1.7153 -1.5816 1.8512 -1.1579 -2.3159 0.3710
-2.3074 1.5226 -5.1087 -2.1735 -0.2183 5.8853 -0.7939 6.7516 1.8067 1.7424 -2.2527 -3.9329 0.7676 5.7100 3.2221 1.2100 -1.4511 -5.9879 2.7920 0.6669 -1.9436 1.7840 -2.6789 -0.6836 2.5052 -2.6261 1.7025 -0.1674 2.1947 0.8614 0.1212 3.2125 1.9395 1.1217 1.7878 0.1913 -1.6120 0.4380 -3.0028 -0.6251 -0.5091 -2.3518 -0.5339 -0.0949 4.0387 0.0603 0.8909 -4.8076 -2.5179 -1.5448 3.8318 -0.3763 4.5059 1.5148 0.1073 -0.8297 2.9621 1.9459 -0.4548 0.5250 -1.9020 -3.9708 0.9790 -2.5050 -3.2866 2.1001 -0.7023 -3.5734 0.5286 -1.3739 0.5080 -4.4972 -1.4854 -0.9978 4.7929 1.0464 0.3638 -0.3141 1.0734 0.0307 -4.0740 0.7348 -0.1121 -2.6727 -0.0881 5.6476 2.2415 1.3119 -1.2854 -4.7789 1.6316 0.3294 -1.7101 -1.8767 -2.2514 2.6847 -0.5385 -1.8198 2.2308 -0.0009 -2.4731 1.1717 1.6241 -2.1295 0.6554
2.0900 1.4975 -6.7395 0.3629 -4.3232 6.3894 1.4334 4.6666 3.0540 0.1594 -2.3372 -3.2918 -0.3181 4.5907 1.4850 2.3834 -1.8921 -3.3210 -2.7060 0.5498 -2.8741 -2.7621 -1.9106 1.0343 -0.4575 -2.0631 0.0662 1.0386 1.7525 -0.5138 1.5405 3.1452 -0.2251 -0.3836 1.8109 -1.0196 -0.1948 0.8827 -6.0385 -1.0439 0.0582 -5.0918 -0.0663 -3.9160 3.9954 1.7169 0.7088 -4.4356 0.5554 -2.0376 5.4690 1.6631 3.3064 1.2096 -0.5538 -2.9677 3.0110 -1.8682 0.0357 -0.3192 -0.3185 1.1910 3.6687 0.1253 0.2526 4.6756 -0.7699 0.7378 2.4885 1.2766 0.5630 -5.8780 -0.2022 -3.3458 5.3894 -0.8580 0.4101 -1.3256 0.8273 -0.0485 -3.4698 -0.5774 0.2064 -3.7265 0.8675 4.2191 1.8776 1.2233 -1.5044 -3.3783 -1.4996 0.3824 -2.6998 0.0826 -1.0696 4.4354 -0.4432 -1.5891 3.1577 -0.8319 -0.6871 2.2202 -1.4911 -1.2754 0.7208
0.8698 1.9961 -4.9904 -0.4020 -7.3619 2.5216 -1.6306 5.9981 -3.3054 3.4243 -0.5009 -0.6282 0.4419 5.2338 -4.1034 4.5093 0.3668 -2.4218 1.7157 2.4288 0.9570 1.0850 -1.0734 1.5947 0.3258 -0.7002 3.9461 -1.8182 2.8176 -0.7080 -1.5098 4.2226 -1.1648 -1.2720 2.6112 0.6838 0.0630 0.8374 -2.9730 0.4310 0.2228 -1.6390 0.3411 -5.0748 3.0798 2.2564 2.0709 -2.9534 -2.0124 -5.4883 2.4674 -0.6003 4.1575 -2.2904 0.1437 -3.6587 2.8299 -0.3684 0.9396 2.1608 -3.6041 -2.1416 1.6276 -3.4029 -3.5610 1.8235 -2.5939 -1.2869 1.8561 1.2953 1.2231 -3.7658 -0.5788 -5.8978 2.2057 -0.4321 1.3551 0.7456 2.5438 1.5053 -1.5743 1.3215 1.1084 -0.9092 -0.5461 5.1454 -3.2559 3.5831 0.4066 -1.6224 0.9770 1.6942 0.3018 -2.2121 -4.0261 2.2401 -1.0813 -3.1065 2.4699 -1.2942 -1.7791 2.2736 0.0317 -0.6841 2.5204
1.7641 3.4084 -5.6119 0.5507 -4.3478 6.7157 2.7630 4.9362 0.7536 1.6579 -1.6234 -3.0776 1.0242 5.5076 -0.7244 3.3700 -0.1500 -2.8643 -2.3257 -0.5006 -3.1791 -1.6129 -3.4686 0.4396 0.4754 -2.0897 0.2882 -0.1316 1.8345 0.0083 -0.4391 3.2642 0.3719 -1.3154 1.2268 -0.7038 0.0609 1.6280 -5.5402 -0.3112 0.2762 -4.9695 0.7299 -3.9192 4.2887 1.5976 1.9902 -3.5994 -0.4012 -2.2837 5.7473 0.7384 3.8606 0.9682 0.0884 -3.3200 3.1310 -1.7419 -1.1532 -0.5968 -2.4036 0.0646 3.5372 -1.8246 -0.5787 4.6952 -2.1302 -0.4065 2.3109 1.4580 2.0197 -5.1088 -0.1427 -3.7563 5.5140 -0.9208 -0.1216 -1.2576 1.1046 0.6963 -2.9766 -0.1750 0.2874 -3.5273 1.4781 4.7973 0.2692 2.1727 -0.3733 -2.9926 -1.2291 -0.1571 -2.7391 -1.0089 -1.6373 4.5471 -0.7062 -2.1809 3.2074 -1.2587 -1.5546 2.1373 -0.9549 -2.1753 0.5381
-0.5097 2.8173 -5.2418 -4.0826 -3.6779 4.4176 0.0172 5.6392 -2.8318 1.5972 -1.3095 -2.3751 -1.4669 5.5067 -1.0114 3.0476 0.2155 -3.2218 -1.5123 -0.3192 0.0460 2.6366 -0.9399 0.9394 2.0772 -1.0291 3.3755 1.2659 3.2717 0.4764 0.8178 4.7074 0.5847 0.1002 2.3589 0.7705 -1.4957 1.1242 -3.7508 -1.2375 0.0395 -2.7270 -2.4601 -2.0235 3.5684 0.7867 2.0556 -3.2922 -2.4067 -4.3388 2.7249 0.8879 5.3262 -0.7233 -1.1076 -1.8241 3.0817 0.5221 0.2217 1.7949 0.9266 -4.8664 0.9812 -0.3822 -5.0976 1.5518 1.4830 -3.6482 1.0674 -0.2051 1.6333 -4.3580 -2.6670 -3.4746 3.9399 0.5036 0.9286 0.5049 0.9911 0.9991 -2.2243 -0.2795 0.4941 -1.7397 -0.2546 5.4802 -1.4880 1.9823 -0.0478 -2.6777 -0.5317 0.2807 -0.3912 -1.0439 -4.0997 2.1636 -0.4286 -2.7660 2.3182 0.7907 -2.5720 1.7575 1.6377 -1.0655 1.9896
-0.6512 -2.3448 -6.7978 -3.9312 -2.0532 5.7790 0.6855 4.6825 2.7736 0.2627 2.1413 -3.8292 -1.4486 3.8823 3.3489 -1.8562 1.3859 -4.1123 3.3488 -0.2640 -2.5026 -0.8779 -1.3489 -0.0195 0.6762 -3.1375 0.7892 0.4342 2.2015 -0.6496 0.6071 3.2894 0.3751 1.6594 1.3247 -0.6668 1.4067 -1.3174 -5.9017 1.9946 -0.2738 -4.9732 -2.6419 -2.7025 3.7733 -0.7293 -1.2257 -4.6039 -1.6490 -1.1728 5.4327 -0.3577 3.0742 1.4325 -1.6440 -2.2837 2.8042 1.6507 -1.0702 -0.3123 1.3447 0.5171 3.8200 0.3153 0.1490 4.7667 1.3707 -0.0583 2.6073 -0.1010 -1.1999 -5.9833 -2.9347 -1.5835 4.7486 1.2985 -0.0070 -1.2732 -0.1035 -0.2196 -3.6553 1.3463 -0.3203 -3.6760 -0.4235 3.8934 2.5423 -0.6693 1.1628 -3.9074 2.1197 -0.2092 -2.5260 -0.6089 -0.7712 4.4398 -0.6176 -1.3925 3.0997 0.3557 -1.0240 2.2265 0.3688 -1.7240 0.6309
-1.9531 2.9891 -5.1907 -3.7401 -4.7970 5.3001 1.3416 5.3693 0.2574 1.8482 -0.9319 -4.5125 -0.1681 5.8633 -1.4735 2.0032 0.5813 -6.1945 2.7754 0.8365 -1.6567 -0.8092 -2.0935 0.1500 1.2376 -3.4652 0.5991 -0.4831 1.9410 0.7485 -0.3159 3.3638 1.2185 0.8778 1.3115 0.5854 -1.5484 1.3696 -3.3695 -0.6187 0.3048 -2.8221 -2.2873 -4.6154 3.3117 0.3657 2.3611 -4.6309 -1.6949 -3.4135 5.3806 -0.7221 4.2628 0.1575 -1.3809 -3.7600 2.5661 1.4923 -0.9824 0.1277 0.9040 -0.7870 4.5041 -0.0412 -1.5980 5.2390 1.0732 -0.9907 3.1883 -1.0647 1.8666 -4.7157 -2.8422 -3.8781 4.5103 0.8051 0.1992 -0.4313 1.3010 1.3419 -4.0046 0.7449 0.8043 -2.7768 0.1431 5.1849 -0.4030 1.7312 0.3134 -5.0304 1.5654 0.6135 -1.6719 -0.7417 -2.5593 4.6122 -0.5881 -2.7841 3.1607 0.2924 -1.9969 2.4908 0.4975 -2.2249 0.7762
-2.1223 1.8781 -6.4591 -2.9896 -2.4318 6.4629 0.8934 4.4649 3.0860 0.9757 -2.4016 -4.8997 -1.0669 3.6200 4.0696 1.1278 -1.5208 -6.9839 2.6144 0.0183 -2.8587 -1.0323 -1.3974 0.2837 0.7799 -3.0586 0.7559 -0.1231 2.2098 -0.3562 0.2212 3.2558 0.6719 1.1313 1.4826 -0.7681 -1.7596 0.8015 -4.2639 -0.9593 -0.2208 -3.4806 -2.0155 -2.9300 4.2526 0.1012 0.9576 -5.9239 -0.8723 -1.3579 5.7718 -0.4038 2.9008 1.9295 -1.2234 -2.4198 3.1484 1.3713 -0.9038 -0.4461 1.6713 0.5921 3.7316 0.8433 0.1333 4.8254 1.5399 0.0356 2.5169 -1.3912 0.7764 -5.7330 -2.2209 -1.8574 5.2990 0.7693 0.1249 -1.3195 0.9156 -0.0190 -5.0963 0.4635 -0.0442 -3.7189 -0.2393 3.6753 3.0628 0.9966 -1.3695 -5.7760 1.3953 -0.0086 -2.6897 -0.0472 -0.8556 4.6329 -0.2314 -1.4564 3.2968 0.5502 -1.0001 2.2839 0.3369 -1.6738 0.6918

>  <OB_ATOM_TYPES> (1dwcB1)
C.3 C.3 N.pl3 O.co2 N.pl3 O.co2 O.2 O.2 O.2 C.3 C.3 C.3 C.3 C.3 C.3 C.3 C.3 N.pl3 N.pl3 N.3 C.ar C.ar C.ar C.3 C.3 C.3 C.3 N.am C.cat C.2 C.2 C.ar C.ar C.ar S.O2

>  <ENSEMBLE_RMSD> (1dwcB1)
1.415 1.633 1.685 1.810 1.877 1.911 2.037 2.125 2.224 2.306 2.310 2.348 2.385 2.509 2.526 2.548 2.683 2.705 2.749 2.749 2.823 2.832 2.870 2.877 2.880 2.882 2.894 2.923 2.930 2.935 3.025 3.029 3.128 3.141 3.201 3.261 3.277 3.292 3.299 3.316 3.386 3.422 3.428 3.463 3.481 3.491 3.569 3.674 3.795 4.024

$$$$
