
 OpenBabel03071213D

 37 40  0  0  0  0  0  0  0  0999 V2000
   31.2960   20.4290   26.2370 N   0  0  0  0  0
   33.5310   20.7490   26.0440 N   0  0  0  0  0
   32.3780   14.1170   25.2350 O   0  0  0  0  0
   32.7440   13.5950   20.2550 O   0  0  0  0  0
   28.3630   11.8390   26.1820 O   0  0  0  0  0
   29.0620   12.8090   28.4350 O   0  0  0  0  0
   33.3310    9.7150   23.2650 C   0  0  0  0  0
   33.0510   10.9910   24.0860 C   0  0  0  0  0
   32.9400    9.9200   21.7710 C   0  0  0  0  0
   33.7560   12.1980   23.4560 C   0  0  0  0  0
   33.6900   11.1160   21.1670 C   0  0  0  0  0
   30.0460   13.7400   24.8830 C   0  0  0  0  0
   32.7220   15.8910   21.7900 C   0  0  0  0  0
   29.9850   13.7390   26.3060 N   0  0  0  0  0
   31.5060   14.2480   23.1380 N   0  0  0  0  0
   34.6900    8.4150   27.8780 C   0  0  0  0  0
   34.8520    9.5850   28.6810 C   0  0  0  0  0
   33.5680    8.2670   27.1180 C   0  0  0  0  0
   33.8930   10.5930   28.7020 C   0  0  0  0  0
   33.8380   17.4680   23.3090 C   0  0  0  0  0
   31.4630   17.3550   23.2950 C   0  0  0  0  0
   33.7800   18.4850   24.2800 C   0  0  0  0  0
   31.3820   18.3620   24.2600 C   0  0  0  0  0
   31.4640    9.1710   26.3000 C   0  0  0  0  0
   30.5070   10.1480   26.3150 C   0  0  0  0  0
   31.7270   11.4390   27.9370 C   0  0  0  0  0
   32.7930   14.5390   22.4860 C   0  0  0  0  0
   33.4730   12.2860   22.0110 N   0  0  0  0  0
   32.4750   19.9650   25.7860 C   0  0  0  0  0
   31.4080   14.0330   24.4730 C   0  0  0  0  0
   32.6760   16.9470   22.8070 C   0  0  0  0  0
   32.9780   13.4720   21.4620 C   0  0  0  0  0
   32.5450   18.9280   24.7480 C   0  0  0  0  0
   32.5820    9.2850   27.1330 C   0  0  0  0  0
   32.7410   10.4530   27.9200 C   0  0  0  0  0
   30.6400   11.2630   27.1350 C   0  0  0  0  0
   29.3410   12.4380   27.0580 S   0  0  0  0  0
  1 29  1  0  0  0
  2 29  2  0  0  0
  3 30  2  0  0  0
  4 32  2  0  0  0
  5 37  2  0  0  0
  6 37  2  0  0  0
  7  8  1  0  0  0
  7  9  1  0  0  0
  8 10  1  0  0  0
  9 11  1  0  0  0
 10 28  1  0  0  0
 11 28  1  0  0  0
 12 14  1  0  0  0
 12 30  1  0  0  0
 13 27  1  0  0  0
 13 31  1  0  0  0
 14 37  1  0  0  0
 15 27  1  0  0  0
 15 30  1  0  0  0
 16 17  2  0  0  0
 16 18  1  0  0  0
 17 19  1  0  0  0
 18 34  2  0  0  0
 19 35  2  0  0  0
 20 22  2  0  0  0
 20 31  1  0  0  0
 21 23  1  0  0  0
 21 31  2  0  0  0
 22 33  1  0  0  0
 23 33  2  0  0  0
 24 25  2  0  0  0
 24 34  1  0  0  0
 25 36  1  0  0  0
 26 35  1  0  0  0
 26 36  2  0  0  0
 27 32  1  0  0  0
 28 32  1  0  0  0
 29 33  1  0  0  0
 34 35  1  0  0  0
 36 37  1  0  0  0
M  END
>  <MOLID> (1dwdB1)
1dwdB1

>  <SMILES_CANONICAL> (1dwdB1)
O=C(N[C@@H](C(=O)N1CCCCC1)Cc1ccc(cc1)C(=N)N)CNS(=O)(=O)c1ccc2c(c1)cccc2	

>  <FINGERPRINT> (1dwdB1)
0000000000000000000000001001000000000001100000000011001000000000000000010001000000000001000000000000010110110001000001100000000000000000000010001000000000000000000000000000000000000000000000000000000000000010000000000000000000100000000000000001000000001100000000000000000000001001100000000000000000001000000010001100001100001000001100000010000000000000011100000000000110111000000000001000011000000000100010000000001000000000000000000010000000000001100000000010000000000000000000000000000000001100100000000000000000000000000000000010000000000000000000100000000000000000000000000000000001100000000000000000100000000000000000000110011000000001100000000000010000000001000000000011100000100100100001100000100100000000000000000000000000000011101010110101000000000000001110000000001000000000000010000000000010000000000000000000000000000100010000000000000000000000000000000001000000000000000000000000110000001100000000000000010000001000001000000000011000000000000010110110000000000100010000000000001000000000000000010010011001100000

>  <MACCS166> (1dwdB1)
000000000000000000000000010000011000010000100000011001100111100100100000101111101001110100110110011001011100011100001111110110011111000111010100111100101111011010111000

>  <OB_MW> (1dwdB1)
521.21

>  <OB_logP> (1dwdB1)
4.7427

>  <OB_PSA> (1dwdB1)
153.83

>  <OB_MR> (1dwdB1)
146.757

>  <OB_ATOMIC_CHARGES> (1dwdB1)
0.2047061662 0.2047061662 -0.2716948219 -0.2730076631 -0.1515834718 -0.1515834718 0.0035128289 0.0215610379 0.0215610379 0.0934478271 0.0934478271 0.2016978006 0.0573599429 -0.0678418682 -0.1962101194 5.7e-09 4.884e-07 9.749e-07 4.00934e-05 -0.0039429009 -0.0039429009 0.0076707409 0.0076707409 0.0013705831 0.0199557515 0.0199552649 0.1755741922 -0.2781505387 0.476608146 0.2615023726 -0.0199508077 0.2458351553 0.0974576845 7.96986e-05 0.0013309784 0.1235634316 0.0772916271

>  <MCT_HBD> (1dwdB1)
4

>  <MCT_HBA> (1dwdB1)
9

>  <ENSEMBLE_TOTAL> (1dwdB1)
50

>  <ENSEMBLE_COORDS> (1dwdB1)
2.0823 7.2149 0.6779 3.8620 5.9717 -0.1946 -0.7191 -0.6985 0.4531 -1.3943 -0.2457 -3.8978 -4.3442 -4.0431 1.2124 -4.3862 -2.1248 2.8233 3.4449 -0.3427 -3.8249 2.3475 -0.6577 -4.8223 2.8988 0.4648 -2.6645 1.1860 -1.3577 -4.1431 1.7202 -0.2376 -2.0164 -3.0786 -0.3851 0.7389 -1.0559 2.3305 -2.4138 -3.5518 -1.7465 0.4171 -1.9322 0.4273 -1.1758 2.4526 -3.4094 4.3505 1.7709 -2.4497 5.0011 1.8364 -4.1211 3.2459 0.4066 -2.1316 4.6169 1.2175 3.3817 -2.2454 -0.5577 4.1337 -0.7762 2.0908 4.2342 -1.6811 0.3806 5.0649 -0.1741 -0.0588 -4.5179 1.7627 -1.3270 -4.2022 1.4426 -1.5559 -2.5187 3.2097 -0.7911 0.9362 -1.8915 0.7202 -0.5881 -3.0087 2.5774 6.1292 -0.0211 -1.7743 -0.2562 0.0109 -0.1511 3.3139 -1.7622 -0.5416 -0.0116 -3.0422 1.6534 5.1141 -0.6092 0.5764 -3.8306 2.8742 -0.1819 -2.7918 3.6026 -2.0931 -3.2136 2.1868 -3.7297 -2.8354 1.7385
0.2652 7.9591 -2.5863 0.8545 6.4547 -4.2884 -2.4706 1.0791 -0.0248 2.2668 -0.3596 0.5065 -4.6734 -3.1438 1.9532 -3.4596 -2.1653 3.9140 1.6641 -1.0246 -3.9294 2.5235 -1.5704 -2.8044 0.7715 0.0930 -3.4235 1.6499 -2.0174 -1.6457 -0.0571 -0.3804 -2.2431 -2.6106 0.1586 2.1937 1.1843 2.2479 0.5829 -3.5704 -0.8508 1.7042 -0.5273 0.6284 1.1612 2.6836 -4.7110 1.5528 2.6159 -3.9755 2.6769 1.5072 -4.8845 0.7186 1.3648 -3.3540 3.0684 2.0512 3.6413 -1.3100 -0.0138 4.2806 -0.2065 1.9687 4.6950 -2.1431 -0.1285 5.3940 -1.1318 -0.8584 -4.4634 0.2603 -2.0002 -3.8787 0.6717 -0.9998 -2.9182 2.6845 0.3666 1.0617 0.1151 0.7997 -0.9291 -1.2055 0.6450 6.7048 -3.0250 -1.8937 0.6607 0.9738 1.0133 3.4181 -0.3164 1.2612 -0.1256 -0.1630 0.8318 5.5952 -2.0520 0.3407 -4.3126 1.0691 0.2680 -3.5100 2.3060 -2.0828 -3.1121 1.9061 -3.5513 -2.3851 2.4799
3.4843 6.8637 -0.9952 1.6215 7.7155 0.1374 -0.4031 -0.5304 0.5610 -1.2723 -0.3406 -3.6383 -4.1014 -3.9870 1.3977 -4.4016 -1.9422 2.8144 3.4323 0.1209 -4.1958 2.8571 -1.2796 -4.2168 3.1539 0.8315 -2.8850 1.3606 -1.2704 -3.9661 1.9715 0.2645 -2.1230 -2.7734 -0.3605 0.8824 -1.0946 2.4031 -2.4759 -3.1448 -1.7575 0.5766 -1.7136 0.5728 -1.0151 2.2806 -5.0614 4.2961 1.7403 -5.9529 3.4459 1.6039 -3.8050 4.5646 0.4748 -5.6681 2.7932 -0.6934 4.3152 -0.9075 0.8506 3.9302 -2.7378 0.0494 5.3417 -0.4557 1.6406 5.0535 -2.2646 -0.2771 -2.2859 4.2278 -1.4599 -2.0741 3.6222 -1.4387 -4.2017 2.4089 -0.6446 1.1119 -1.8219 0.9618 -0.2351 -3.0347 2.1464 6.8135 -0.6470 -1.4870 -0.1344 0.1462 -0.2535 3.5563 -2.0661 -0.3789 0.0940 -2.9115 1.2692 5.7163 -1.1537 0.4300 -3.5288 3.9683 -0.1647 -4.5097 3.0360 -2.0523 -3.0399 2.7082 -3.5740 -2.7394 1.9247
-0.5372 7.3477 0.2100 1.4628 7.5962 -0.9817 -2.2393 -0.3719 -2.1147 2.0598 -1.2133 -2.1614 -3.7048 -3.6974 1.5890 -4.2600 -1.5598 2.7730 -0.1296 -1.1082 -5.9654 1.2228 -1.5659 -5.4518 -0.9171 -0.4104 -4.8743 1.9759 -0.4063 -4.8213 -0.1053 0.7092 -4.2470 -2.1224 -2.0808 -0.4462 1.3733 1.1073 -0.4644 -3.0248 -1.4545 0.5402 -0.3238 -0.5802 -0.8122 2.6961 -3.7210 4.6196 2.2697 -4.7526 3.8693 1.8871 -2.5209 4.7409 0.9916 -4.6804 3.1851 1.8799 3.3935 -1.3613 0.3765 3.1531 0.5274 1.7219 4.7292 -1.3561 0.2180 4.5962 0.5445 -0.1328 -1.2513 4.2072 -1.3165 -1.2325 3.5646 -1.0628 -3.4848 2.6403 0.4569 0.4426 -1.4719 1.1749 0.2075 -3.7802 0.5967 6.8236 -0.3836 -1.5949 -0.9156 -1.2244 1.1526 2.5742 -0.4061 1.3039 -0.2975 -2.4855 0.8535 5.3527 -0.3693 0.7015 -2.4386 4.1095 0.2284 -3.5781 3.2964 -1.7984 -2.3649 2.7867 -3.3339 -2.3461 1.9749
-0.3226 7.8918 -2.0002 1.7783 7.5133 -2.9572 -2.4725 0.3186 -1.1760 1.5159 -0.9273 0.4676 -4.3814 -3.5640 1.5767 -4.1780 -1.7550 3.2907 2.4005 -1.2869 -3.9744 2.5844 -2.1108 -2.7137 1.7609 0.0520 -3.6583 1.2604 -2.2664 -1.9894 0.4735 -0.1306 -2.8771 -3.1376 0.0986 1.1254 1.1573 1.9310 0.3499 -3.7246 -1.2215 0.8309 -0.9283 0.6831 0.5281 2.6629 -4.6288 1.8097 2.0141 -4.9351 0.6720 1.9745 -3.9204 2.8736 0.6231 -4.5550 0.4970 1.9834 3.6049 -1.3385 0.2171 4.2245 0.2013 1.9109 4.8025 -1.9489 0.1508 5.5237 -0.4437 -0.0251 -2.8438 3.7673 -1.3113 -2.5038 3.5629 -1.4119 -3.4743 1.3195 0.2159 0.9439 -0.3131 0.6885 -0.9664 -1.7094 0.8079 7.1149 -2.1798 -2.1667 0.3600 0.0109 1.0670 3.2866 -0.2551 0.9038 -0.3957 -0.4571 0.9455 5.7932 -1.4958 0.6875 -3.5580 2.7220 -0.0241 -3.8860 1.4689 -2.0182 -2.8196 2.3314 -3.6819 -2.3931 2.0818
2.9604 6.8676 0.1004 1.4777 6.2011 1.7909 -0.0684 -0.7145 0.0924 -1.3102 -0.2625 -4.2983 -3.6742 -4.0882 1.2169 -4.5053 -1.9445 2.2045 3.1435 -0.3043 -5.2466 1.8545 -0.8375 -5.8441 2.8622 0.5014 -3.9923 1.0776 -1.6328 -4.8097 2.0530 -0.3161 -3.0023 -2.4148 -0.4739 0.5100 -0.6967 2.2189 -2.8135 -2.8250 -1.8734 0.2811 -1.4347 0.3054 -1.4948 2.2616 -3.6573 5.1414 2.3331 -4.2867 3.9549 1.0737 -2.9019 5.4977 1.2205 -4.2213 3.0238 -0.8036 4.0669 -1.1260 1.3480 3.4232 -2.0429 -0.2264 4.9937 -0.3387 1.9784 4.3905 -1.1621 -1.1702 -2.0913 4.9731 -2.1840 -2.0711 4.0873 -1.0255 -3.4594 2.4412 -0.3894 0.8100 -2.3479 0.8457 -0.8283 -3.6270 1.9045 6.1042 0.5617 -1.1631 -0.3247 -0.2987 0.0159 3.2370 -1.9951 -0.3527 -0.1215 -3.5386 1.2190 5.1448 -0.3473 0.0354 -2.8336 4.6444 0.1109 -3.5310 3.3443 -2.1205 -2.7630 2.8092 -3.4109 -2.7260 1.6505
2.5304 7.0252 -2.9181 0.4388 7.6089 -2.0522 -2.7367 1.0304 -0.4976 1.6892 -1.0482 0.0485 -4.2446 -3.9073 0.9984 -3.9658 -2.6138 3.1251 1.1044 -0.0925 -4.4926 1.1316 -1.5660 -4.1342 0.0782 0.6895 -3.6937 1.2756 -1.7702 -2.6373 -0.5929 -0.1549 -2.6295 -3.1534 -0.2017 1.5135 1.0259 1.6752 0.5848 -3.6764 -1.4203 0.8650 -0.9470 0.2671 0.7793 3.0506 -3.5940 2.8582 2.4980 -2.8344 3.8207 2.2331 -4.1119 1.7756 1.0773 -2.5371 3.7921 2.1479 3.1848 -1.0731 0.1862 3.9674 0.1205 2.2443 4.3501 -1.7383 0.2973 5.2288 -0.5880 0.0750 -4.3201 0.6499 -1.2366 -4.0165 0.6600 -1.1190 -2.7490 2.7499 0.0789 0.7299 -0.1181 0.3980 -0.9032 -1.8764 1.4040 6.7377 -2.1694 -2.2825 0.4299 0.4710 1.0711 2.9830 -0.1184 0.8098 -0.4970 -0.6113 1.2826 5.4130 -1.4864 0.9162 -3.8394 1.7338 0.3074 -3.0159 2.7983 -1.8490 -3.2443 1.7306 -3.5480 -2.8832 1.7594
2.3947 7.3003 -1.0332 0.5643 7.3347 0.4223 -2.5881 0.9004 -1.3683 1.3233 -1.7760 -1.2589 -3.1718 -4.4125 0.5126 -3.8907 -2.8275 2.3111 -1.1347 -1.4855 -5.3576 -0.2261 -2.4906 -4.6769 -1.5507 -0.3917 -4.3936 0.9670 -1.7996 -4.0446 -0.3409 0.2657 -3.7567 -3.1108 -0.5176 0.4861 1.3099 0.8851 -0.1240 -3.2229 -1.9114 0.0108 -0.8694 -0.1589 -0.2153 2.8459 -1.7208 4.1806 1.8288 -1.1384 4.8404 2.5856 -2.5345 3.0060 0.4648 -1.3021 4.3725 2.1436 3.0279 -1.1178 0.6107 3.0973 0.7617 2.1771 4.3712 -1.1776 0.6572 4.5468 0.7055 1.0199 -3.5526 1.4268 -0.2617 -3.6815 1.0325 -1.1425 -2.2304 2.7917 0.2151 0.3453 -1.0193 0.5341 -0.7309 -3.1684 1.4397 6.6555 -0.2684 -2.1846 0.1518 -0.4846 1.3116 2.3693 -0.1260 0.7374 -0.8396 -1.8009 1.4005 5.1612 -0.2339 1.3239 -2.7086 2.5711 0.2108 -2.0493 3.2833 -1.3595 -3.0130 1.7155 -3.0115 -3.1393 1.1956
2.5385 7.4174 -1.3911 0.4032 7.7697 -0.5080 -2.6459 0.8271 -1.5933 1.6703 -1.2041 -0.4615 -2.4984 -4.6470 -0.0211 -4.1175 -3.4266 1.4446 -0.8266 -2.1717 -4.1361 0.6556 -2.4033 -4.3401 -1.1410 -0.6954 -3.9913 1.4643 -1.8701 -3.1728 0.0046 0.1152 -3.4108 -3.3085 -0.8377 -0.0105 0.8435 1.3385 0.4203 -3.0118 -2.1948 -0.5122 -1.0751 -0.0284 -0.1041 2.9019 -2.2495 3.9184 3.1182 -3.0684 2.8735 1.5650 -1.7549 4.1934 2.0161 -3.4691 2.0166 2.1178 3.2396 -0.5966 -0.0191 3.6630 0.4731 2.2499 4.5402 -0.9125 0.1299 5.0676 0.1431 -0.8151 -1.6470 3.6651 -1.8120 -2.0589 2.8604 -0.3551 -3.4050 1.4253 0.0936 0.6002 -0.6681 0.8610 -0.6994 -2.5699 1.3731 6.9504 -0.8118 -2.3222 0.0697 -0.6843 0.9328 2.7855 0.1097 0.9539 -0.5260 -1.1973 1.2178 5.4910 -0.5270 0.5353 -2.1161 3.4061 0.7712 -3.0200 2.2611 -1.5870 -2.9511 1.7321 -2.8822 -3.4309 0.6774
2.5386 7.4174 -1.3911 0.4032 7.7697 -0.5080 -2.6459 0.8270 -1.5933 1.6703 -1.2040 -0.4614 -2.4984 -4.6471 -0.0211 -4.1174 -3.4265 1.4446 -0.8266 -2.1717 -4.1361 0.6556 -2.4034 -4.3401 -1.1410 -0.6954 -3.9913 1.4644 -1.8701 -3.1728 0.0047 0.1151 -3.4108 -3.3085 -0.8377 -0.0106 0.8435 1.3385 0.4203 -3.0118 -2.1948 -0.5121 -1.0751 -0.0284 -0.1041 2.9019 -2.2495 3.9184 3.1182 -3.0684 2.8735 1.5649 -1.7549 4.1934 2.0160 -3.4691 2.0167 2.1177 3.2396 -0.5967 -0.0190 3.6631 0.4730 2.2498 4.5403 -0.9124 0.1299 5.0676 0.1431 -0.8151 -1.6469 3.6651 -1.8120 -2.0589 2.8604 -0.3551 -3.4049 1.4253 0.0936 0.6003 -0.6681 0.8610 -0.6994 -2.5699 1.3731 6.9504 -0.8118 -2.3222 0.0696 -0.6843 0.9327 2.7854 0.1097 0.9539 -0.5260 -1.1973 1.2177 5.4911 -0.5270 0.5354 -2.1160 3.4062 0.7712 -3.0200 2.2611 -1.5870 -2.9511 1.7321 -2.8822 -3.4308 0.6774
2.8952 5.4924 2.1211 4.0570 5.7544 0.1101 -0.5950 -1.3908 -0.7067 -1.7826 0.7161 -4.4240 -3.3173 -4.8028 1.2085 -4.2729 -2.7233 2.2249 2.2985 -1.9468 -4.5500 1.0996 -1.7306 -5.4521 1.9910 -1.4937 -3.1364 0.6583 -0.2805 -5.4181 1.5235 -0.0509 -3.1169 -2.8713 -1.1156 0.0317 -1.1521 2.5238 -2.1219 -3.0401 -2.5807 -0.0248 -1.9285 0.2694 -1.6349 2.0205 -1.4149 5.2605 0.9646 -0.6135 5.4881 1.9239 -2.4925 4.2926 -0.2844 -0.8282 4.7780 -0.1004 3.2681 0.0325 0.9728 3.8127 -2.0733 0.8788 3.8785 0.7240 2.0180 4.4905 -1.3278 0.6537 -3.7613 2.6394 -0.5231 -3.9343 2.0096 -1.6332 -2.0862 3.1724 -0.8650 1.0422 -2.2250 0.4332 0.1471 -4.0540 3.0256 5.2868 0.7599 -1.6635 -0.7961 -0.8000 -0.0446 3.2238 -1.4194 -0.8091 0.6295 -3.6767 1.9757 4.5227 0.0174 0.7751 -2.6983 3.6230 -0.3904 -1.8276 3.8830 -1.6868 -3.1083 2.2946 -3.2046 -3.3811 1.4906
1.4293 6.9903 0.2973 0.3072 6.0205 2.1029 -2.3018 0.1744 -1.8491 1.7635 -1.6101 -3.2051 -3.6927 -3.5357 1.4857 -3.9730 -1.4810 2.8923 -1.1720 -0.9169 -6.3946 0.2065 -1.5383 -6.2614 -1.6173 -0.2979 -5.0836 1.2017 -0.5265 -5.7172 -0.5769 0.6882 -4.5855 -2.2539 -1.8660 -0.5906 1.7216 0.5899 -1.2127 -2.9513 -1.2530 0.5575 -0.2622 -0.8192 -1.3445 2.7278 -2.0108 5.1218 1.9140 -1.0439 5.5820 2.2825 -2.9036 4.0670 0.5813 -0.8873 5.0290 1.8369 3.0917 -1.4353 0.9936 2.1070 0.6140 1.6611 4.3335 -0.9475 0.8101 3.4458 1.1439 0.5649 -3.6599 2.5053 -0.6899 -3.5006 2.0447 -1.1818 -1.5952 3.4998 0.5554 0.1313 -2.0622 0.7181 0.0418 -4.4736 0.9367 5.8856 0.9671 -1.6372 -0.7107 -1.3206 1.4711 1.9361 -0.6320 1.0713 -0.5966 -3.2836 1.1243 4.5178 0.3925 1.0479 -2.7721 3.5494 0.1534 -1.7125 4.0568 -1.5794 -2.4662 2.5514 -3.1904 -2.2497 1.9386
2.2330 6.7459 -0.7747 0.0254 6.8646 -0.0143 -2.6423 0.1853 -1.9169 1.3098 -2.2968 -1.1071 -4.1923 -3.0760 2.0008 -4.4072 -0.9014 3.2241 1.9681 -0.2128 -5.6661 2.8610 -1.1064 -4.8284 1.1304 0.6972 -4.7917 2.0779 -1.8486 -3.7628 0.3517 -0.1118 -3.7756 -3.3910 -1.5760 -0.4768 0.8149 0.3912 0.1167 -3.8728 -0.8671 0.7260 -1.1122 -0.9288 -0.5670 2.8518 -2.9154 2.8152 2.2238 -3.9949 2.3160 2.0942 -1.7305 3.1783 0.7846 -3.9803 2.1271 1.9496 2.4764 -0.6873 -0.1220 2.6504 0.5618 2.0298 3.8146 -0.7976 -0.0324 4.0954 0.4479 -0.0289 -0.5303 3.3498 -1.3563 -0.5482 3.1224 -1.3648 -2.8348 2.2527 0.0610 -0.2384 -1.0311 1.2568 -0.9356 -2.9961 1.0696 6.1465 -0.3281 -2.3653 -0.6582 -1.0711 0.8223 1.8724 0.0027 0.9185 -1.2898 -1.6938 0.9985 4.6571 -0.2112 0.7594 -1.7043 3.0100 0.0720 -2.8871 2.4535 -2.0377 -1.7114 2.5729 -3.7390 -1.7120 2.2196
2.5172 7.4473 -0.0779 1.7985 6.2724 1.8194 1.0134 -0.5119 -0.8112 -1.8102 0.1527 -4.2499 -2.2489 -4.5930 0.6054 -3.5397 -2.5005 1.0755 2.3310 -1.6273 -5.2673 0.9201 -1.6513 -5.8225 2.3533 -0.9128 -3.9302 0.3811 -0.2374 -5.9451 1.7743 0.4839 -4.0603 -0.9976 -0.9076 0.4287 -1.1647 2.5799 -2.5819 -1.1874 -2.3300 0.0816 -1.0047 0.3697 -1.5646 1.3776 -3.7734 6.6898 1.9918 -4.3968 5.6684 0.1093 -3.0987 6.4784 1.3876 -4.4070 4.3481 -0.9515 4.0780 -0.5872 0.7796 4.1151 -2.2863 -0.2899 4.9878 0.1516 1.5154 5.0660 -1.4717 -1.7347 -2.4428 5.0176 -2.2667 -2.4909 3.7819 -0.4276 -3.7959 2.8345 -0.4594 1.2393 -2.5776 0.4564 0.4496 -4.6711 1.7997 6.4304 0.5239 -0.1974 -0.3471 -0.7071 -0.3862 3.6096 -1.8425 -0.6974 0.5424 -3.8985 0.9987 5.4841 -0.3019 -0.4617 -3.1007 5.2601 0.2091 -3.7923 4.1401 -1.6139 -3.1740 2.6762 -2.2744 -3.2166 1.0733
4.0872 5.4919 0.2240 2.6090 5.5742 2.0342 -0.3056 -0.2768 0.1526 -1.8410 0.4893 -4.4844 -2.7909 -4.8228 0.7651 -4.0126 -2.9350 1.8709 1.8968 -1.8804 -5.1527 0.7149 -1.4035 -5.9772 1.8036 -1.3782 -3.7241 0.5498 0.1041 -5.8786 1.6408 0.1298 -3.7029 -2.5941 -0.9870 0.1083 -1.1493 2.4184 -2.2532 -2.4207 -2.4396 -0.0937 -1.5919 0.0813 -1.7518 1.5550 -1.7394 6.0704 0.3948 -1.0787 6.2332 1.7270 -2.6532 4.9547 -0.6958 -1.2763 5.2958 0.9878 3.7255 -2.1314 -0.3127 3.3629 -0.1148 1.9321 4.3872 -1.4393 0.7115 4.0666 0.6339 0.8579 -3.7612 2.9566 -0.1858 -3.9250 2.1213 -1.6294 -2.3543 3.3180 -0.6937 0.9850 -2.4277 0.4867 0.5212 -4.4913 2.8562 5.2345 0.7983 -1.3564 -0.3718 -0.4722 -0.1675 3.1798 -1.4394 -0.7699 0.6201 -3.8934 1.7898 4.5610 -0.0021 0.7233 -2.8477 4.0799 -0.5508 -2.1232 4.2608 -1.4495 -3.2273 2.3071 -2.8065 -3.4513 1.2451
-0.5493 7.8376 0.6053 0.0892 8.4746 -1.5536 -1.0798 0.4721 -0.0398 1.9556 0.4849 -3.9427 -2.4647 -4.1069 0.2716 -2.4630 -1.9936 1.6181 -2.4355 -1.1432 -4.2766 -1.8516 -0.5321 -5.5331 -2.5159 -0.1430 -3.1390 -0.4691 0.0379 -5.2805 -1.5810 1.0411 -3.3038 0.3187 -1.3857 0.5399 2.0158 2.2615 -1.7364 -0.5301 -2.4559 -0.0211 0.9527 0.1688 -1.1299 1.6591 -5.1872 6.4576 1.2013 -3.9383 6.6564 1.4099 -5.8647 5.1983 0.4422 -3.2626 5.6186 1.3211 4.5418 -2.5120 1.3458 4.0420 -0.1381 0.8482 5.7790 -2.2775 0.8550 5.3844 0.1171 0.4596 -5.8986 2.9516 -0.2545 -5.2431 2.0182 -0.5778 -3.2430 3.3973 0.8492 1.3280 -1.9816 -0.3546 0.6526 -3.9741 0.0311 7.5638 -0.6200 -0.0442 -0.1555 -0.2345 1.5450 3.6298 -1.4029 0.8970 0.7872 -3.3927 0.5978 6.2132 -0.9117 0.7135 -5.2483 4.2261 0.1970 -3.8815 4.4492 -0.7992 -3.9136 2.2490 -1.7342 -3.1034 1.0275
2.4929 7.3264 -0.0685 0.1667 7.2457 0.2086 -2.6370 0.3178 -2.0834 1.0473 -1.8673 -1.3937 -2.2423 -4.7354 0.6354 -4.0439 -3.3416 1.6732 -0.6250 -1.6027 -5.5496 0.3286 -2.5020 -4.7859 -1.1405 -0.4907 -4.6584 1.4467 -1.6879 -4.1552 0.0177 0.2871 -4.0609 -3.1893 -1.0549 -0.2075 1.1720 0.8717 -0.2677 -2.7954 -2.4652 -0.3917 -0.9939 -0.1666 -0.5176 2.7144 -1.5068 4.4648 2.9964 -2.5549 3.6704 1.3778 -0.9372 4.4775 1.9684 -3.1241 2.8192 0.2169 3.0353 0.5728 2.2082 3.0572 -0.8136 0.2493 4.3747 0.6935 2.2261 4.5051 -0.7108 -0.9417 -0.9281 3.6937 -1.8701 -1.5126 2.9104 -0.3264 -3.1743 2.0020 0.1399 0.3574 -1.2515 0.9088 -0.6087 -3.3464 1.3065 6.6266 0.0595 -2.2576 -0.2440 -1.0611 1.2242 2.3545 -0.2246 0.7309 -0.8333 -1.9814 1.2965 5.1358 0.0298 0.4127 -1.4596 3.6977 0.7251 -2.6108 2.8271 -1.5702 -2.6582 2.0609 -2.7410 -3.4284 1.0331
1.6504 7.4924 -1.0455 -0.6765 7.7139 -1.1658 0.3062 0.9291 1.7562 -0.1946 -1.6629 -1.9591 -3.9482 -1.1984 3.2052 -2.2943 -1.3568 5.0757 4.3603 -0.8325 -2.4077 3.8911 -2.2612 -2.2217 4.1703 -0.0210 -1.1422 2.5028 -2.3628 -1.6178 2.7834 -0.1609 -0.5424 -2.1042 0.8377 1.8594 -0.2580 1.3229 -2.2903 -1.9233 0.3764 3.2488 -0.9169 0.3688 -0.1338 0.1060 -5.5418 -0.6953 -1.0527 -5.0604 -1.1799 0.5990 -5.0968 0.5955 -1.8215 -4.0947 -0.4143 -1.1815 3.5341 -1.5793 1.1105 3.4100 -2.3635 -1.0500 4.8431 -1.3022 1.2429 4.8329 -2.0972 0.3690 -3.7331 2.6065 -0.3712 -2.8352 3.2829 -2.1184 -2.7041 1.5727 0.1671 0.5395 -1.0669 1.9484 -1.0646 -1.3085 0.3894 6.9647 -1.2524 -0.7626 0.7217 1.1911 -0.0492 2.7826 -2.0945 0.5895 -0.8509 -1.4713 0.2112 5.5162 -1.5674 -0.0998 -4.1974 1.3118 -1.3734 -3.6691 0.7809 -1.6327 -2.3215 2.7707 -2.5684 -1.1600 3.6613
-3.0621 7.1756 -1.9197 -1.2215 8.2380 -2.9077 -1.1318 -0.0952 -1.0557 3.4575 0.7377 -1.8651 -1.5268 -0.3509 4.3110 0.8272 -0.8779 3.6325 0.7441 -1.4803 -4.9966 2.1892 -1.5218 -4.5373 -0.0761 -0.5772 -4.0961 2.7649 -0.1197 -4.4488 0.5410 0.8075 -4.0225 -0.0787 -1.2017 0.7919 1.7054 2.8176 -0.8229 -1.0013 -0.6988 1.8293 1.0052 0.5381 -0.3928 -0.6013 -7.8009 3.6629 0.6485 -7.3342 3.4908 -1.7188 -6.8793 3.7748 0.8891 -5.9054 3.4092 1.0924 4.6967 -2.3654 -0.2212 4.3137 -0.3607 0.3104 5.7335 -2.7168 -1.0525 5.4462 -0.7261 -2.6010 -4.5980 3.8231 -2.3269 -3.2808 3.7520 0.0751 -3.6092 3.4414 1.2249 1.5165 -1.4307 1.9328 0.7248 -3.6151 -1.7200 7.2286 -2.2476 -0.1592 -0.1947 -0.3155 0.7961 3.9421 -1.1587 2.3225 0.9400 -2.2970 -0.8043 6.1170 -1.8657 -1.5091 -5.5518 3.7061 -0.1373 -5.0421 3.5113 -0.9748 -2.7738 3.5683 -0.6016 -1.0800 3.4599
3.2107 6.9380 -1.2838 1.2785 8.0011 -2.0746 -1.5107 0.7694 1.7120 0.5860 -0.8650 -1.9841 -4.5558 -3.1403 1.2318 -3.8456 -3.0765 3.6330 2.4946 -0.7570 2.1341 3.2534 -1.2636 0.9234 2.3333 0.7467 2.0812 2.8850 -0.5513 -0.3656 1.5967 1.1921 0.8334 -3.4656 -0.3581 0.8611 -0.7312 1.7931 -2.2161 -3.5434 -0.9838 2.1965 -1.6626 0.2637 -0.5492 2.0242 -4.9579 -0.6387 1.0235 -4.9276 -1.5368 1.7974 -4.5136 0.7246 -0.2956 -4.4647 -1.1457 1.3251 3.2258 -2.4087 -0.7931 4.2500 -1.8205 1.9631 4.4046 -2.2990 -0.1041 5.5229 -1.6902 0.3277 -3.6049 2.4505 -0.9100 -3.1823 2.7699 -1.8311 -3.6001 0.5406 -0.4970 1.0147 -0.9403 1.6611 0.2065 -0.2295 1.9120 6.9057 -1.7561 -2.1090 0.2825 0.7582 -0.1013 3.1398 -2.1356 0.6227 0.0166 -1.1276 1.2195 5.5955 -1.9232 0.5832 -4.0700 1.0973 -0.5193 -4.0523 0.1149 -2.0081 -3.1990 1.8149 -3.6145 -2.7008 2.2480
0.6032 6.7473 -3.4177 -1.2018 7.1756 -1.9952 0.9220 2.1735 2.0391 0.7664 -1.8797 -0.9297 -3.7386 -0.5835 3.7611 -1.7508 -1.3267 5.0919 3.3272 0.2078 -4.0105 3.0834 -1.2569 -3.6977 3.9288 0.9650 -2.8444 3.2347 -1.5819 -2.2245 3.1129 0.7954 -1.5762 0.0012 0.4511 3.4210 -0.5585 0.7680 -0.9563 -1.4704 0.5073 3.3133 0.5066 0.0734 1.1301 -0.0337 -5.9498 0.0102 0.6680 -5.8742 1.1552 -1.0992 -5.0000 -0.2573 0.3606 -4.8484 2.1352 0.2140 2.5766 -2.5273 -1.2985 3.1230 -0.7120 0.2788 3.8666 -2.9028 -1.2303 4.5150 -1.1176 -2.4470 -3.0698 0.4020 -2.7021 -2.1382 1.3407 -0.9682 -2.9380 2.8707 0.7364 0.4268 -0.2468 2.6168 -0.5590 -1.4076 -0.3664 6.3245 -2.5268 0.5145 1.0199 2.1325 -0.5790 2.1962 -1.3694 1.3491 -0.7970 -0.8860 -0.4663 4.8765 -2.1656 -1.3938 -4.0431 0.6422 -0.6268 -3.9650 1.9024 -1.9720 -2.0798 2.5990 -2.3212 -0.8986 3.8248
2.4417 6.4469 -0.2871 0.5384 6.3103 1.0620 -2.7324 -0.1550 -1.4521 1.6486 -1.9937 -2.5118 -3.4586 -4.1514 1.7839 -4.6914 -2.2598 2.8701 1.4883 1.0922 -5.8600 1.9769 -0.3341 -5.6865 0.9385 1.6329 -4.5544 0.8838 -1.2174 -5.1106 -0.1473 0.7174 -4.0246 -2.9047 -2.3954 -0.5952 1.1430 -0.0071 -0.4558 -3.7869 -1.9441 0.4989 -0.8062 -1.3711 -0.9768 2.7151 -1.4385 3.9105 2.6341 -2.6532 3.3387 1.5336 -0.6011 4.0227 1.3598 -3.1462 2.8496 2.1118 2.2384 -1.0369 0.3912 2.0820 0.6628 2.1949 3.5718 -0.8736 0.4894 3.5188 0.8487 -0.8545 -0.2285 3.6522 -2.0169 -0.7321 3.1942 -1.0352 -2.8621 2.5026 0.1311 -0.4129 -1.5054 0.3486 -0.6406 -3.8936 1.4308 5.7194 0.3141 -2.1693 -1.1675 -1.0492 1.1587 1.4669 -0.2551 0.8164 -1.1017 -2.6649 1.3504 4.2395 0.1059 0.3475 -1.0425 3.5660 0.2559 -2.3857 2.9600 -2.1179 -2.0698 2.6295 -3.6074 -2.7252 2.0213
2.6728 7.1594 -0.3037 1.8961 6.1218 1.6494 0.9687 -0.7687 -0.7284 -1.8213 -0.1603 -4.1594 -2.3548 -4.7388 0.8527 -3.6051 -2.6080 1.2540 2.5364 0.5373 -6.3413 1.1386 0.1727 -6.8021 2.5017 1.2008 -4.9782 0.4354 -0.6872 -5.7701 1.7774 0.3317 -3.9684 -1.0188 -1.0905 0.5706 -1.1718 2.3077 -2.5786 -1.2508 -2.5141 0.2559 -1.0443 0.1496 -1.4468 1.2718 -3.7249 6.9357 1.8810 -4.4068 5.9491 0.0172 -3.0401 6.6822 1.2907 -4.4612 4.6228 -0.9032 3.8780 -0.6460 0.8119 3.8038 -2.3605 -0.2079 4.7942 0.0527 1.5855 4.7571 -1.5854 -1.8022 -2.4181 5.1792 -2.3285 -2.5121 3.9442 -0.5042 -3.8850 3.0636 -0.4880 0.9594 -2.4996 0.4708 -0.0441 -4.4744 1.9161 6.2028 0.3470 -0.2348 -0.5729 -0.5956 -0.3669 3.3538 -1.8917 -0.7047 0.1931 -3.7829 1.0895 5.2373 -0.4306 -0.5425 -3.0860 5.4594 0.1257 -3.8348 4.3744 -1.6843 -3.2588 2.8753 -2.3534 -3.3479 1.2754
-0.8714 7.8585 -2.9960 -0.5202 8.2107 -0.7057 -1.4213 -0.6316 -1.1068 2.5185 -0.3376 -2.5295 -2.9551 -2.8780 1.4488 -3.2132 -1.3621 3.4277 0.4311 1.5926 -6.2685 0.7380 0.1107 -6.3114 -0.6396 1.9023 -5.2420 1.1276 -0.4444 -4.9547 -0.4815 1.1276 -3.9465 -0.3296 -1.5563 0.8167 1.8326 2.1810 -1.1030 -1.2296 -1.0103 1.8507 0.6641 0.1680 -0.4509 1.4294 -6.9465 5.3302 1.0417 -7.3295 4.1005 1.0281 -5.6529 5.8516 0.2231 -6.4507 3.2829 1.4576 4.2487 -2.4615 0.4661 4.0761 -0.2524 0.9267 5.4716 -2.6373 -0.1278 5.3864 -0.4499 -0.1519 -3.5330 5.6078 -0.9160 -2.7494 4.8254 -0.9856 -4.3464 2.9661 0.8653 1.0986 -1.5336 0.8012 0.4551 -3.8696 -0.4560 7.4303 -1.7494 -0.4601 -0.6215 -0.3460 1.2122 3.5238 -1.2264 1.4817 0.3109 -2.6684 0.1067 6.0598 -1.5913 0.2670 -4.8307 5.1066 -0.1565 -5.2481 3.7529 -1.3490 -3.1626 3.4989 -2.3542 -2.1209 2.5339
3.3168 6.6690 -1.5112 1.4003 7.7817 -2.2711 -1.4968 0.7726 1.8535 0.3066 -1.1051 -1.8511 -4.6882 -3.0397 1.6088 -3.8925 -2.9483 3.9820 4.1937 0.8708 0.7560 4.0038 0.1977 -0.5884 2.9140 0.9816 1.5595 2.7961 -0.7163 -0.6068 1.6955 1.1122 0.6704 -3.5339 -0.3037 1.1354 -0.8408 1.6456 -2.1296 -3.5662 -0.8997 2.4867 -1.7830 0.2169 -0.3814 1.7318 -5.1304 -0.4854 0.6866 -5.1043 -1.3316 1.5902 -4.6257 0.8690 -0.5967 -4.5885 -0.8916 1.2478 3.0037 -2.4603 -0.8024 4.1166 -1.8010 1.9307 4.1614 -2.4101 -0.0641 5.3681 -1.7354 0.2322 -3.6188 2.6344 -0.9794 -3.1605 3.0028 -2.0190 -3.6250 0.8379 -0.5924 0.8874 -0.8419 1.5854 0.0015 -0.2616 1.9997 6.6735 -1.9318 -2.1615 0.2835 0.9457 -0.1644 2.9732 -2.1128 0.4562 -0.1834 -1.0501 1.2501 5.3867 -2.0260 0.4083 -4.1378 1.2876 -0.7431 -4.1263 0.3631 -2.1250 -3.1780 2.1049 -3.6964 -2.6120 2.5815
-1.3516 8.2309 -3.0002 -2.5924 7.6084 -1.1189 -1.3562 0.4131 -0.4775 3.1642 0.6436 -2.5059 -0.1821 -0.6605 4.7251 1.8433 -0.9683 3.2866 -0.1552 -1.2322 -5.7138 1.3595 -1.2096 -5.6512 -0.7626 -1.0069 -4.3443 1.8745 0.0491 -4.9779 -0.2278 0.2659 -3.7216 -0.0628 -1.1050 0.8528 1.7470 2.7422 -1.1532 -0.4412 -0.5837 2.1819 0.9682 0.5371 -0.5061 -1.5957 -7.6001 4.1747 -2.3164 -6.8058 4.9863 -0.5623 -7.0343 3.3268 -2.0677 -5.3754 5.0207 0.9587 4.6559 -2.5643 -0.0210 4.3069 -0.3731 0.1789 5.7314 -2.7751 -0.8541 5.4749 -0.5951 0.7224 -5.1197 2.5290 0.9389 -3.7940 2.6085 -0.8300 -3.4111 4.2587 1.0842 1.4609 -1.6096 1.2219 0.2419 -3.7001 -1.6120 7.3724 -1.9480 -0.2516 0.0365 -0.0998 0.8380 3.9040 -1.3267 1.9471 0.7638 -2.6388 -0.7651 6.1562 -1.7529 -0.3179 -5.7117 3.3527 -1.1101 -4.8377 4.2433 0.1583 -2.9278 3.4800 0.4306 -1.2117 3.5269
3.1977 5.8647 0.3241 1.0122 5.9124 1.1590 -2.7931 0.0420 -1.2063 1.0854 -2.0310 -3.0977 -3.6644 -4.1479 1.7899 -4.2160 -2.1688 3.2218 1.0623 1.7070 -5.6152 0.3935 0.5401 -6.3137 0.3695 2.0893 -4.3205 0.2641 -0.6608 -5.3954 -0.6397 1.0554 -3.8630 -3.1166 -2.2379 -0.5220 1.1797 -0.3065 -0.7444 -3.7638 -1.8087 0.7338 -0.9720 -1.3957 -1.0832 2.6979 -0.8416 4.1024 1.7639 -0.0858 4.7068 2.3051 -1.8781 3.1650 0.3555 -0.2978 4.4240 0.5508 1.7467 0.5578 2.3845 1.8480 -1.0273 0.7129 3.0437 0.8746 2.5550 3.2508 -0.6919 0.5786 -3.1418 1.9913 -0.7382 -3.3351 1.7917 -1.4247 -1.5101 3.2725 -0.0242 -0.4699 -1.6444 -0.1264 -0.2899 -4.0501 1.9835 5.2559 0.5846 -2.3034 -1.0557 -0.9610 1.4120 1.1293 -0.4375 0.3832 -1.0275 -2.9867 1.7551 3.8244 0.2259 1.0034 -2.0915 2.9010 -0.0229 -1.2586 3.5615 -1.7531 -2.5162 2.4379 -3.4474 -2.7527 2.1347
1.9253 7.8320 -1.9370 1.4552 7.8082 0.3536 1.9637 -0.1587 -0.8989 -1.9435 -0.1034 -3.1324 -0.3496 -4.8444 0.0938 -1.7471 -2.7687 0.0146 2.2541 -0.1028 -5.6043 0.9568 -0.8863 -5.6377 2.4066 0.6095 -4.2748 -0.2233 0.0254 -5.3634 1.2084 1.4965 -3.9951 0.7007 -1.1663 0.8733 -1.4539 2.2378 -1.3701 0.7796 -2.5715 0.4246 -0.3405 0.1526 -0.7956 -0.4436 -4.8418 7.1846 0.5884 -5.4291 6.5526 -1.4020 -4.0455 6.4387 0.7498 -5.2751 5.1183 -0.4777 4.3202 -2.3815 -0.4846 4.0418 0.0288 0.1934 5.4808 -2.2764 0.2321 5.2982 0.1431 -2.2042 -3.1039 4.3309 -2.0159 -2.9903 3.0025 0.0027 -4.3692 2.9816 -0.4352 1.1968 -1.7836 -0.0294 0.7486 -4.1245 1.3418 7.2559 -0.8237 0.8727 -0.3477 -0.3718 -0.8012 3.5592 -1.1859 -0.8945 0.5357 -3.0624 0.5657 5.9869 -0.9644 -1.2638 -3.8937 5.1090 -0.1321 -4.5414 4.4160 -0.9066 -3.6308 2.3138 -0.6482 -3.5159 0.6035
-1.2566 8.4397 -2.5224 -2.7641 7.3880 -1.0749 -1.1650 -0.0989 -0.7966 3.0025 0.6051 -2.8779 -0.2969 -0.5391 4.5302 1.8658 -0.8326 3.3059 -0.4300 -1.7113 -4.5388 1.0137 -1.5970 -4.9929 -1.1785 -0.3975 -4.6389 1.4868 -0.1605 -5.1100 -0.4685 0.7180 -3.8949 0.2902 -1.2267 0.7385 1.7762 2.7324 -1.2976 -0.3205 -0.7093 1.9793 1.0874 0.4830 -0.6934 -1.4704 -7.5712 4.0990 -2.5387 -6.7586 4.1864 -0.1465 -7.0153 3.8870 -2.3769 -5.3197 4.0681 -0.1272 4.1365 -0.4568 1.0650 4.8083 -2.4596 -0.9417 5.2028 -0.5470 0.1823 5.9570 -2.5608 1.3332 -5.1008 3.5786 1.4435 -3.7629 3.4885 -0.9555 -3.3530 3.7582 1.0654 1.4729 -1.7434 0.9771 0.6392 -4.0161 -1.6434 7.3636 -1.7444 -0.0412 -0.2171 -0.3197 0.9045 3.9244 -1.4585 1.7989 0.8578 -2.9141 -0.7824 6.1474 -1.6416 0.0181 -5.6843 3.7795 -1.1551 -4.7900 3.8735 0.2938 -2.8768 3.5796 0.4545 -1.1536 3.4480
-0.4113 8.0978 -0.2037 0.6150 8.4187 -2.2825 -1.6614 0.6857 -0.0248 1.7415 -0.2237 -3.2958 -0.4207 -3.7433 -0.2616 -2.5088 -4.2939 1.0035 -2.6480 0.6788 -5.5346 -1.3953 -0.0802 -5.9191 -2.3258 1.7936 -4.5609 -0.6875 -0.6025 -4.6860 -1.5600 1.2784 -3.3583 -0.4369 -0.9961 1.1847 1.8214 2.0571 -1.5081 -1.5897 -1.9134 1.1008 0.5255 0.1800 -0.6315 1.2186 -5.3395 6.9444 -0.1261 -5.3637 6.9646 1.9242 -4.9618 5.7326 -0.8825 -5.0120 5.7759 1.3749 4.2539 -2.6525 1.1904 4.0969 -0.2401 1.0371 5.5566 -2.6230 0.8410 5.5057 -0.2051 1.9115 -4.2736 3.3884 1.1722 -3.9751 2.3034 -0.9685 -4.3142 3.4368 0.6138 1.1613 -1.6828 -0.4157 0.4797 -3.7647 0.3106 7.6302 -1.2874 -0.6296 0.0365 0.1119 1.4227 3.4877 -1.4170 0.7204 0.3816 -2.9716 0.7550 6.2054 -1.3513 1.2356 -4.6388 4.6225 -0.2412 -4.6633 4.6455 -0.2827 -4.0030 2.3181 -1.2398 -3.5875 0.9293
-1.9662 7.4329 -3.4895 -2.9981 6.8739 -1.4657 -0.3162 0.4503 0.9974 3.3660 0.4532 -2.1527 -0.8754 -1.3739 5.2537 1.5604 -1.8869 4.9995 0.3699 -2.9639 -2.1898 1.7277 -2.6494 -2.7893 -0.1143 -1.8171 -1.3244 1.6988 -1.3226 -3.5294 -0.1068 -0.5176 -2.1092 1.5229 -0.1088 2.4614 2.0781 2.8239 -1.0949 0.4970 -0.0925 3.5220 1.8661 0.8889 0.3457 -2.4547 -5.5811 -0.2465 -3.2652 -4.5375 0.0047 -1.1844 -5.7041 0.4459 -2.8768 -3.5265 0.9715 0.1474 4.2706 -0.3755 0.8763 4.2914 -2.6890 -0.8016 5.1884 -0.6347 -0.1593 5.2675 -2.9740 0.4538 -4.8660 2.0507 0.7729 -3.9076 2.9407 -1.2865 -2.6352 2.5947 1.5226 1.4240 -0.9494 1.2124 -0.2665 -2.6631 -2.0212 6.7043 -2.3152 0.8909 0.4418 1.2138 1.0106 3.7962 -1.4457 2.1514 0.4889 -1.9590 -0.9612 5.7049 -1.9856 -0.8120 -4.7736 1.3433 -1.7024 -3.6283 1.6202 -0.1037 -2.7833 3.2258 0.2809 -1.5585 4.3915
-2.0821 7.8763 -2.8381 -2.6175 7.4590 -0.6015 -0.8371 0.2741 -0.1561 3.1697 0.7871 -3.0268 0.9528 -0.8317 4.8175 2.7203 -1.6822 3.2602 -0.5415 -1.4265 -5.5059 0.9547 -1.3016 -5.7174 -0.9041 -1.2136 -4.0506 1.4782 0.0160 -5.1799 -0.3522 0.1015 -3.5383 0.8091 -1.0902 0.9287 1.8764 2.8142 -1.4557 0.6208 -0.5597 2.2940 1.4213 0.5793 -0.6303 -2.6313 -6.9151 4.0748 -3.0260 -5.9755 4.9525 -1.5047 -6.6666 3.1935 -2.3282 -4.7045 5.0269 0.6912 4.6234 -2.7168 0.1568 4.2542 -0.3802 -0.1865 5.6400 -2.7886 -0.7940 5.3486 -0.4585 0.2971 -5.2239 2.4003 0.9336 -4.0443 2.5208 -0.5524 -3.2056 4.2767 1.2462 1.4712 -1.7510 1.0716 0.1921 -3.8017 -1.9284 7.1554 -1.6680 0.3464 -0.0014 0.0098 0.8562 3.8937 -1.4713 1.9444 0.8064 -2.9164 -0.9604 6.0166 -1.6156 -0.8458 -5.4954 3.2556 -1.2786 -4.4631 4.2203 0.5095 -3.0229 3.4673 1.3141 -1.4852 3.5700
2.1306 6.2976 0.8943 0.8465 5.2924 2.5693 -2.0447 -0.7683 -0.9208 1.8027 -1.0524 -3.8754 -1.6150 -5.0725 1.5358 -3.4169 -3.6482 2.5279 -2.1823 -0.6091 -5.8386 -0.7355 -0.7862 -6.2623 -2.3016 -0.4891 -4.3313 0.1419 0.3074 -5.6767 -1.3812 0.5965 -3.8040 -1.5747 -3.1375 -0.8740 1.8170 0.0786 -1.2141 -2.6492 -3.1905 0.1370 0.0461 -1.5490 -1.5566 1.3673 1.1585 4.5552 0.0526 1.4217 4.6648 1.8183 -0.0290 3.8516 -0.9258 0.5110 4.0965 2.2192 2.5550 -1.1835 1.1110 1.4993 0.6953 2.1477 3.7588 -0.5865 1.0430 2.7941 1.3439 1.3427 -2.0687 2.5957 0.4028 -2.9024 2.1122 -1.4761 -1.5465 2.8985 0.5560 -0.2656 -1.9742 -0.0153 0.3620 -4.2375 1.4951 5.1976 1.4401 -1.2503 -1.6855 -1.1011 1.6754 1.3831 -0.5189 0.8545 -0.3945 -3.4502 1.5467 3.8817 0.7330 0.9224 -0.8782 3.3157 -0.5222 -0.5982 3.4503 -1.0212 -2.6600 2.2886 -2.2271 -3.7639 1.7001
1.9432 6.4536 0.6145 -0.0964 5.7374 1.5153 -1.9612 -1.0502 -1.0500 2.0593 -1.4176 -3.4998 -1.4584 -5.0735 1.7762 -3.6574 -4.0134 2.3357 -1.9508 0.6029 -5.7895 -0.6528 0.1226 -6.3948 -1.6107 1.5009 -4.6242 0.1412 -0.6731 -5.3807 -0.8508 0.7203 -3.5759 -1.3332 -3.3604 -0.7292 1.9347 0.0799 -0.9684 -2.5453 -3.4489 0.1079 0.2693 -1.6801 -1.1925 1.8672 0.5875 4.4789 2.5495 -0.5080 4.1001 0.4347 0.6689 4.2582 1.8582 -1.6200 3.4723 0.8400 1.6972 0.6083 2.2682 2.5327 -1.1664 0.6033 2.9458 1.0484 2.0008 3.8824 -0.7025 -1.6492 -0.2953 3.4291 -2.2532 -1.3509 2.8522 -0.1937 -2.6613 2.6539 0.7440 -0.4361 -1.7422 0.2949 -0.0131 -4.0967 0.9970 5.4736 0.8528 -1.0797 -1.9013 -0.9943 1.7028 1.4841 -0.5417 1.1186 -0.6890 -3.1856 1.2092 4.0789 0.3680 -0.2176 -0.3520 3.6730 0.5306 -1.5587 3.2634 -1.5255 -2.5541 2.4767 -2.3310 -3.9114 1.7495
-0.6729 7.3789 -1.0425 -0.7737 6.7394 -3.2888 2.3204 1.6498 1.4092 0.0406 -1.8606 -1.4352 -1.5524 -0.5041 4.9414 0.6408 -1.6683 5.2726 4.0977 -0.7588 -4.1914 3.3107 -2.0315 -3.9488 3.9721 0.2018 -3.0259 1.8743 -1.7375 -3.5619 2.5172 0.4610 -2.6903 1.7893 -0.0707 2.9832 -0.6532 0.8279 -0.5335 0.4671 0.2430 3.5614 1.1697 -0.2385 0.6928 -3.0924 -4.7780 -0.4843 -3.9805 -3.8806 -0.0204 -1.7477 -4.8269 0.0624 -3.6009 -2.9513 1.0280 -0.4345 3.2540 0.0541 -0.9159 2.6219 -2.2374 -0.4223 4.5577 -0.2754 -0.9234 4.0307 -2.5894 -0.0533 -4.0081 1.6220 0.2451 -3.1464 2.6128 -1.9561 -2.0805 2.6037 0.7533 0.2730 -0.5879 1.8311 -0.7973 -2.4627 -0.7111 6.4089 -2.0274 1.7874 0.5666 1.6265 -0.6697 2.2489 -0.9685 0.8036 -0.9011 -1.5346 -0.6769 4.9625 -1.6494 -1.3853 -3.9768 1.0404 -2.3601 -2.9891 1.5461 -0.7136 -2.1733 3.1170 -0.3248 -1.0466 4.3821
-3.8615 5.3102 -0.4643 -3.3200 6.0886 -2.6007 0.5886 -0.7273 0.3723 3.6833 0.6690 -2.7670 1.1170 -0.3824 5.2807 2.4235 -2.3098 4.3587 0.1881 -2.6124 -3.8151 1.6970 -2.5323 -3.9325 -0.3396 -1.5996 -2.8164 2.1225 -1.1212 -4.2804 0.1644 -0.1958 -3.1042 2.5796 -0.8794 1.7004 2.0949 2.6795 -1.3319 2.0520 -0.2153 2.9091 2.4338 0.5714 -0.1727 -3.4227 -4.7300 1.1108 -2.2357 -5.3333 0.9203 -3.4999 -3.4899 1.8617 -1.0257 -4.7618 1.4844 0.0171 3.5269 -0.2027 0.4013 4.0337 -2.5430 -1.1748 4.1493 -0.2318 -0.8839 4.7089 -2.5738 -2.4287 -1.6984 3.1285 -1.2862 -1.2096 3.6460 0.1010 -3.0426 2.8037 1.8318 1.1889 -1.3278 1.6027 -0.1929 -3.3015 -2.9888 5.4163 -1.5318 1.7357 -0.3467 0.5816 0.8208 3.4407 -1.4110 2.4824 0.5452 -2.5278 -1.6479 4.7570 -1.4662 -2.3854 -2.9453 2.3829 -1.0854 -3.6220 2.1968 -0.0112 -1.8971 3.5063 1.4600 -1.2405 4.1583
-0.6382 7.7270 -2.0950 0.9230 7.0440 -3.6952 1.3798 1.2913 2.1609 0.3735 -1.5624 -1.3266 -1.8504 -1.6224 5.1064 0.3531 -2.7637 5.4462 3.7354 0.8203 -3.4569 3.2924 -0.6288 -3.5414 4.0977 1.2442 -2.0480 3.0409 -1.2556 -2.1839 2.9838 0.9468 -1.0629 -0.5400 0.2834 3.1870 -0.7583 1.1995 -1.3222 0.2580 -0.6879 3.9618 -0.2027 0.2194 0.8391 -2.8366 -5.1772 -0.9455 -3.7174 -4.2445 -0.5410 -1.5962 -5.3759 -0.2161 -3.4380 -3.4343 0.6312 -1.0747 3.6473 -0.8811 0.2163 2.9422 -2.8089 -0.8928 4.9424 -1.1955 0.4079 4.3408 -3.1520 -0.0897 -4.8007 1.6191 0.1262 -4.0301 2.7019 -1.9935 -2.8256 2.5005 0.3320 0.6660 -0.4210 2.3444 -0.3335 -1.3130 0.0737 6.7397 -2.7516 0.3382 0.6564 2.0302 -0.4864 2.6091 -1.7107 0.9919 -0.5325 -1.0617 -0.1227 5.3046 -2.3756 -1.3235 -4.6306 0.8704 -2.2945 -3.6113 1.3174 -0.8395 -3.0437 3.1622 -0.5729 -2.0639 4.5715
1.2536 7.4864 -1.0176 -0.0548 7.3555 0.9185 2.5164 0.2548 -0.9167 -1.3580 -1.2575 -2.7763 2.8303 -2.4419 3.3255 2.6172 -4.4346 1.8224 2.4390 -0.6792 -5.8643 1.3286 -1.6994 -5.7025 2.6315 0.1258 -4.5943 0.0431 -1.0481 -5.2294 1.3275 0.7641 -4.1601 1.6766 -0.7182 1.1040 -1.3737 1.4897 -1.5760 2.0873 -2.1188 0.8827 0.2330 -0.1256 -0.6851 -4.1387 -2.9496 4.7472 -3.3699 -2.0493 5.3855 -3.5762 -3.7716 3.6915 -1.9732 -1.8875 5.0195 -1.0711 3.3215 0.0982 -0.5024 3.7376 -2.2228 -0.6593 4.5522 0.4522 -0.0715 5.0716 -1.8446 -1.6955 -4.4481 2.2944 -0.3964 -4.2765 1.9892 -0.0392 -2.5167 3.6586 -0.1691 0.6183 -1.8510 0.2925 -0.2460 -4.0516 0.3649 6.8183 -0.1950 1.5508 -0.1481 -0.2761 -0.9616 2.8888 -1.2848 -0.4968 -0.3919 -2.9237 -0.1324 5.4578 -0.5567 -2.2833 -3.6350 3.3452 -1.4378 -2.6423 4.0423 0.4450 -3.3155 2.6864 2.1237 -3.1411 2.2654
1.8026 8.0823 -2.0938 1.6781 7.8376 0.2289 1.5557 -0.4705 -1.1764 -2.2447 0.1616 -3.1942 2.2589 -3.4522 1.0198 0.4404 -5.0702 0.4273 1.6992 -0.7723 -5.4350 0.4441 -0.5153 -6.2435 2.1982 0.4995 -4.7810 -0.6118 0.2633 -5.4806 1.1169 1.2465 -4.0228 0.2993 -1.1838 0.7342 -1.5549 2.4598 -1.5003 -0.0487 -2.5580 0.3178 -0.6107 0.3199 -0.8510 -2.0206 -4.7375 7.0719 -2.5618 -5.5763 6.1706 -0.9840 -3.8033 6.6713 -2.1119 -5.5565 4.7900 -0.3241 4.1290 -0.0927 -0.6920 4.5921 -2.4449 0.3653 5.2744 0.0563 0.0393 5.8359 -2.2814 0.4831 -2.8556 4.9661 0.8869 -2.8850 3.6826 -0.6659 -4.6646 3.0356 -0.6101 1.3372 -1.8755 -0.1795 0.6093 -4.1448 1.3753 7.4057 -0.9655 0.5084 -0.4239 -0.5404 -0.8402 3.7581 -1.3997 -1.1213 0.6599 -3.1280 0.5638 6.1564 -1.0840 -0.5569 -3.7752 5.3958 -1.1490 -4.6989 4.4058 0.3178 -3.8035 2.7073 0.8548 -3.8262 1.0543
-0.9631 6.9301 1.2204 0.7688 7.1140 -0.3466 2.9852 0.3265 -0.4970 -0.6867 -1.8726 -2.2556 1.9969 -2.0847 4.1612 2.2274 -4.1178 2.7255 3.3874 -1.9785 -4.4454 2.1914 -2.3482 -5.2981 3.3569 -0.5178 -4.0412 0.8842 -2.0871 -4.5745 1.9535 0.0346 -3.8685 2.0958 -0.3923 1.6056 -0.9804 0.9607 -1.5118 2.4443 -1.8265 1.6528 0.7527 -0.3085 -0.3507 -4.8345 -1.4818 2.2279 -4.1770 -0.3666 2.5928 -4.1138 -2.7275 2.0356 -2.7420 -0.4030 2.8103 -0.2883 3.3325 -1.9960 -1.0601 2.7279 0.2243 -0.0882 4.6069 -1.6132 -0.8230 4.0963 0.6456 -2.0311 -4.0018 2.0401 -0.7008 -3.9880 2.2437 -0.6287 -1.6224 2.8538 0.3320 0.2125 -1.6284 0.9962 -1.0213 -3.6005 -0.1664 6.4022 0.2210 2.0204 -0.0814 0.1412 -0.7820 2.3557 -1.0383 0.1374 -0.9958 -2.5141 -0.3640 4.9988 -0.2406 -2.7833 -2.7733 2.2289 -2.0635 -1.5520 2.6421 0.0158 -2.7882 2.6464 1.7307 -2.7616 2.9016
0.6111 6.6560 -4.0781 -1.1463 7.1815 -2.6244 1.2765 1.6246 2.3721 1.0759 -1.6490 -0.6834 -1.9265 -1.4575 5.3284 0.0832 -2.9418 5.1616 3.9611 0.9691 -3.3151 3.9631 -0.5280 -3.0736 4.0951 1.7650 -2.0342 3.6196 -0.9181 -1.6490 3.0162 1.4067 -1.0304 -0.5643 0.4650 3.3733 -0.5974 0.8497 -1.2294 0.1448 -0.6421 4.0467 -0.0595 0.2443 1.0631 -2.1621 -5.3829 -1.0953 -1.0465 -5.8635 -0.5177 -2.8735 -4.2673 -0.4971 -0.5452 -5.2719 0.7096 -1.1522 3.2881 -0.9786 0.0291 2.5252 -2.9545 -1.0837 4.5654 -1.3945 0.0806 3.9011 -3.4172 -3.1279 -2.6141 1.2822 -2.6494 -2.1202 2.4396 -0.7345 -3.6425 2.5165 0.4967 0.6382 -0.2055 2.6639 -0.0016 -1.0667 -0.3333 6.2959 -3.1342 0.3347 0.8507 2.2372 -0.5468 2.2327 -1.7743 1.4228 -0.4689 -0.6574 -0.4416 4.8840 -2.6603 -2.4242 -3.7142 0.6442 -1.1990 -4.2427 1.2785 -1.4444 -2.6392 3.0698 -0.8161 -1.9778 4.5483
1.6809 6.7537 0.3110 1.1025 5.7032 2.3195 2.3966 -0.5556 -1.6836 -1.7299 -1.2163 -3.3548 2.4168 -3.7185 2.3327 0.7131 -5.1347 1.1674 1.9248 -0.6669 -6.6134 0.7096 -1.5674 -6.5020 2.2846 -0.0649 -5.2696 -0.4588 -0.8455 -5.8581 1.0944 0.6554 -4.6693 1.5706 -1.4189 0.3892 -1.3581 1.3107 -1.7991 1.3116 -2.8585 0.1861 0.1061 -0.5771 -1.2831 -2.8810 -0.4490 5.8020 -1.5961 -0.1820 6.0967 -3.2076 -1.3447 4.7076 -0.5257 -0.7826 5.3194 -0.4994 2.3540 0.3073 -0.5032 3.6531 -1.7413 0.0922 3.3561 0.9804 0.1052 4.7491 -1.0063 -2.5259 -2.8150 2.8851 -1.5081 -3.3613 2.1953 0.2335 -2.2486 3.5133 -0.2729 0.3787 -2.2935 -0.0474 -0.2366 -4.6120 1.0833 5.7236 1.0140 1.4295 -0.8110 -0.9734 -0.7755 2.4951 -1.1130 -0.7842 -0.4365 -3.4574 0.4079 4.6004 0.2970 -2.2261 -1.9112 3.9825 -0.8132 -1.6161 4.3026 -0.1155 -3.0918 2.5208 1.1655 -3.8225 1.6001
-1.9835 5.5949 1.7122 -2.1280 6.6761 -0.3549 0.4475 -1.0454 0.0285 2.2319 0.2561 -4.3182 3.3465 -2.5098 3.6513 3.0147 -4.4116 2.0563 -2.5801 -1.1407 -4.8336 -1.6721 -0.3531 -5.7545 -2.3363 -0.7630 -3.3868 -0.2207 -0.4959 -5.3471 -0.8705 -0.9021 -3.0230 2.4433 -2.3678 -0.1417 2.0475 1.9361 -1.9642 3.0138 -2.0001 1.1701 2.1054 -0.4364 -1.4762 -3.6911 -1.6792 4.1484 -2.8493 -0.9603 4.9124 -3.1711 -2.5785 3.1345 -1.4140 -1.0758 4.7266 0.9416 2.9529 0.0528 0.5040 3.8674 -2.1507 0.0872 3.8252 0.6174 -0.4190 4.8079 -1.5425 -1.2924 -3.6288 1.9843 0.0442 -3.7512 1.8869 0.5145 -2.0715 3.6064 1.3401 0.6063 -2.1128 -0.0311 -0.1624 -3.9506 -1.6179 5.7298 0.3857 1.5442 -1.2203 -0.4922 1.1357 2.9577 -1.3882 1.2596 0.2041 -3.5663 -0.6263 4.7842 -0.2129 -1.8430 -2.7045 2.9612 -0.9176 -1.9128 3.7975 0.9604 -2.9654 2.7015 2.6822 -3.0622 2.4825
0.6347 7.0231 -0.1236 -0.0849 6.0920 1.8991 2.9544 -0.1528 -1.0795 -0.7680 -1.7290 -3.2234 2.8666 -2.6079 3.3307 2.2082 -4.6685 2.0696 0.8145 0.6677 -6.8975 0.0095 -0.5905 -6.6301 1.0629 1.4265 -5.6080 0.7041 -1.4508 -5.5904 1.7197 0.5311 -4.5732 1.9200 -0.9512 0.9275 -1.0019 0.9237 -1.9556 2.1331 -2.4119 0.8799 0.6749 -0.6031 -1.0624 -3.9388 -1.5183 5.0234 -2.9612 -0.7474 5.5320 -3.6275 -2.5372 4.0365 -1.5855 -0.9326 5.1048 -0.6953 2.3049 0.1151 -0.6445 3.3871 -2.0547 -0.4150 3.4646 0.7364 -0.3745 4.6470 -1.3823 -2.0147 -3.7276 2.6418 -0.7270 -3.8709 2.2777 0.0851 -2.0964 3.7555 0.2945 0.1788 -2.2144 0.9522 -0.6878 -4.3835 0.1096 5.9764 0.6129 1.9342 -0.5241 -0.5096 -0.7670 2.2559 -1.3367 0.0747 -0.8364 -3.3144 -0.2393 4.6800 -0.0431 -2.3581 -2.7182 3.6299 -1.2831 -1.8763 4.1954 0.3381 -3.0588 2.8471 1.9954 -3.2610 2.3670
1.2137 7.5297 -2.3985 2.6205 7.1845 -0.5617 1.4889 -1.5880 -2.3000 -2.2532 -0.0932 -2.2978 1.4999 -5.5052 1.0090 -0.9219 -5.8177 0.4380 -0.0329 2.7083 -5.7417 -1.4595 2.2666 -5.4788 0.8044 2.6334 -4.4801 -1.5005 0.8917 -4.8410 0.7362 1.2481 -3.8676 1.2738 -2.6599 -0.1748 -0.7235 1.5919 -0.3389 0.3157 -3.7559 -0.4341 0.0393 -0.6971 -0.7109 -0.9701 -2.5892 7.0052 -0.2656 -3.7334 7.0653 -1.3758 -2.0473 5.7209 0.1026 -4.4313 5.8463 1.1039 3.2738 0.0502 -0.8007 3.8764 -1.3235 1.6892 4.4623 -0.1858 -0.1796 5.1672 -1.5625 -1.4638 -2.1856 3.2855 -1.1163 -2.8735 2.1824 0.0909 -4.6122 3.4104 -0.1570 0.5927 -1.3279 -0.6475 0.8581 -3.6737 1.6511 6.7671 -1.3303 0.9577 -1.6082 -1.1942 -0.1717 2.9554 -0.5704 -1.1356 0.3921 -2.4648 1.0261 5.4429 -1.0321 -1.0484 -2.6882 4.5841 -0.2656 -3.9400 4.6491 -0.3001 -4.0768 2.2366 0.1753 -4.9395 0.8084
-2.9587 6.5010 -1.2210 -3.3304 5.1687 0.6661 0.5775 -1.1759 0.1401 3.0299 0.5491 -3.6994 2.9354 -1.1929 4.6176 3.0247 -3.3203 3.2942 -1.2109 -1.0815 -5.4177 0.1777 -0.9761 -6.0180 -1.2041 -1.6421 -4.0114 1.2870 -1.2119 -5.0128 -0.2622 -0.8734 -3.1058 2.8161 -1.7600 0.7684 1.9719 2.1605 -1.5992 2.9244 -1.0587 2.0630 2.3779 -0.1145 -0.8793 -4.0696 -3.1951 2.7808 -3.3588 -4.2258 2.2894 -3.3894 -2.0343 3.3262 -1.9066 -4.1948 2.3167 0.2314 2.9821 0.0111 0.2315 3.7950 -2.2748 -0.8415 3.7354 0.3105 -0.9328 4.6016 -1.9540 -1.3390 -0.8324 3.8769 0.0064 -0.8461 3.8960 0.1873 -3.0793 2.9025 1.5979 0.7035 -1.7744 0.9953 -0.5541 -3.7575 -2.6278 5.4377 -0.4012 1.7820 -0.9914 0.0018 0.7763 3.0004 -1.3360 1.9694 0.2316 -3.1619 -1.4509 4.5710 -0.7120 -2.0450 -1.9884 3.3509 -1.2636 -3.1309 2.8315 0.7773 -1.9873 3.4280 2.5141 -1.9704 3.4646
2.0847 3.6834 3.0556 1.9413 5.5354 1.6214 1.6794 -1.7430 -1.7991 -1.6604 -0.5107 -4.5498 1.4462 -3.9356 2.8596 -0.5030 -4.8788 1.5911 2.6538 -1.0519 -6.0994 1.2439 -1.2072 -6.6387 2.6270 -0.6847 -4.6289 0.4170 0.0369 -6.3624 1.7879 0.5603 -4.4110 -0.0208 -2.9556 -0.6075 -1.1796 1.2427 -2.1049 0.8697 -2.9404 0.5690 -0.5483 -1.1175 -2.0075 -2.5140 1.3264 5.3860 -1.2349 1.1553 5.7652 -3.0861 0.4975 4.3391 -0.4228 0.1243 5.1469 0.6098 2.9056 -1.4803 -0.8005 1.9472 0.2457 1.3193 3.5902 -0.5646 -0.0688 2.7235 1.2325 -2.8813 -1.3134 2.7069 -2.0995 -2.2808 2.1894 -0.1705 -1.7234 3.5830 -0.3056 0.1416 -2.6659 0.4533 0.3739 -4.9529 1.6881 4.2804 1.8738 0.4939 -1.8740 -1.5120 -0.4666 2.0231 -1.0560 -0.5930 -0.0581 -4.1384 0.9637 3.4919 0.8409 -2.3431 -0.4598 3.7545 -0.9469 -0.6611 4.1893 -0.7353 -2.5068 2.6434 0.3018 -3.7370 1.9859
3.0970 4.6104 1.6032 1.5489 3.8640 3.1878 1.4004 -1.7793 -1.8870 -1.8486 -0.2641 -4.6023 1.0084 -4.3104 2.6024 -1.1639 -4.7314 1.4208 2.4260 -1.2606 -6.0908 1.6318 -0.3509 -7.0061 2.5698 -0.6990 -4.6892 0.2816 -0.0039 -6.4077 1.6935 0.5131 -4.4418 -0.3733 -2.9368 -0.7469 -1.2282 1.4002 -2.1665 0.5302 -3.0609 0.4144 -0.7802 -1.0023 -2.0604 -1.9018 1.3936 5.7047 -0.6687 0.9763 6.0430 -2.6244 0.7393 4.6296 -0.0483 -0.1286 5.3329 0.6355 2.9518 -1.4807 -0.7660 1.9213 0.2105 1.3822 3.5536 -0.5369 0.0409 2.5672 1.2281 -2.7689 -0.9648 2.8917 -2.1679 -1.9932 2.2664 -0.1199 -1.8611 3.6081 -0.4395 0.2340 -2.7181 0.3664 0.3149 -4.9963 1.9256 3.9580 1.9411 0.2089 -1.8495 -1.6026 -0.4679 2.0888 -1.0902 -0.7357 0.0590 -4.1889 1.0758 3.3505 0.8714 -2.0633 -0.2877 3.9661 -0.7059 -0.7441 4.3330 -0.8374 -2.4540 2.6330 -0.1130 -3.8132 1.8239
1.9737 5.6610 1.5904 2.3911 3.6247 2.6756 1.4887 -1.7308 -1.8935 -1.9444 -0.3341 -4.4534 1.4686 -4.1465 2.6901 -0.6156 -4.9229 1.5311 2.5679 -0.5833 -6.3683 1.1875 -1.0936 -6.7300 2.6512 -0.2417 -4.8926 0.1319 -0.0848 -6.3264 1.5442 0.7074 -4.4682 -0.1507 -2.9860 -0.6544 -1.3610 1.2693 -2.0247 0.8122 -3.0514 0.4642 -0.7368 -1.0871 -1.9613 -2.1018 1.2081 5.6444 -0.8137 0.9716 5.9509 -2.7622 0.4309 4.6108 -0.0753 -0.0677 5.2559 -0.6255 1.7664 0.3156 0.1963 3.1424 -1.5083 0.1069 2.4572 1.2072 1.0115 3.8704 -0.5508 -2.7226 -1.3307 2.9197 -2.0090 -2.3000 2.3169 0.0267 -1.8606 3.6032 -0.4915 0.1781 -2.6110 0.2532 0.2199 -4.9175 1.8159 4.2937 1.7137 0.3203 -1.8713 -1.5456 -0.5702 2.1166 -1.0943 -0.8207 -0.0062 -4.0732 0.9602 3.5427 0.7534 -2.0894 -0.5339 3.9578 -0.6769 -0.7985 4.3001 -0.6268 -2.5834 2.6720 0.2861 -3.8459 1.9003
-0.5436 4.8027 2.8435 -0.1400 6.0937 0.9366 2.9594 -0.4811 -1.3216 -0.6791 -2.1729 -3.5207 2.3121 -0.3968 4.0182 2.5909 -2.7947 3.3484 3.0220 -0.6006 -6.3741 2.0778 -1.7871 -6.3798 3.1029 0.0251 -4.9953 0.7119 -1.3962 -5.8507 1.7242 0.3833 -4.4752 2.2749 -1.9544 0.4414 -1.0824 0.2551 -1.8514 2.4570 -0.9781 1.5337 0.7617 -1.2337 -1.2394 -4.7069 -0.9396 3.1599 -4.1487 0.1813 3.6509 -3.8692 -2.0358 2.7089 -2.7045 0.3002 3.7465 -0.8810 1.3375 0.3894 -0.7562 2.7180 -1.5991 -0.6782 2.4041 1.1813 -0.5699 3.8770 -0.7412 -1.6658 -3.0173 2.3409 -0.3327 -2.8734 2.4541 -0.4683 -0.6302 3.4248 0.2456 -0.3482 -2.2553 0.8433 -0.7663 -4.5548 -0.3935 4.9315 1.4741 2.0601 -1.1213 -0.7866 -0.8957 1.4959 -1.0539 0.0645 -1.1934 -3.4933 -0.5211 3.7263 0.5964 -2.5297 -1.9368 2.7858 -1.9166 -0.7111 3.3380 0.2757 -1.6742 3.0087 1.9990 -1.4886 3.1111

>  <OB_ATOM_TYPES> (1dwdB1)
N.pl3 N.pl3 O.2 O.2 O.2 O.2 C.3 C.3 C.3 C.3 C.3 C.3 C.3 N.3 N.am C.ar C.ar C.ar C.ar C.ar C.ar C.ar C.ar C.ar C.ar C.ar C.3 N.am C.2 C.2 C.ar C.2 C.ar C.ar C.ar C.ar S.O2

>  <ENSEMBLE_RMSD> (1dwdB1)
2.172 2.515 2.515 2.525 2.543 2.545 2.550 2.572 2.639 2.639 2.674 2.687 2.707 2.749 2.756 2.773 2.836 2.846 2.940 3.044 3.044 3.068 3.075 3.102 3.138 3.220 3.243 3.260 3.262 3.279 3.331 3.394 3.538 3.559 3.566 3.624 3.686 3.704 3.709 3.730 3.787 3.798 3.841 3.932 3.954 3.956 3.969 3.978 4.007 4.114

$$$$
