
 OpenBabel03071213D

 35 34  0  0  0  0  0  0  0  0999 V2000
   37.1860   48.6190    5.8140 C   0  0  0  0  0
   38.7760   46.6940    5.4920 C   0  0  0  0  0
   39.5170   39.9850    8.7360 C   0  0  0  0  0
   37.4740   41.2690    9.3420 C   0  0  0  0  0
   38.6570   41.7380    7.1730 C   0  0  0  0  0
   43.3200   50.9200    6.2350 O   0  0  0  0  0
   39.4470   46.1010   15.1470 O   0  0  0  0  0
   44.8330   51.9470    8.2380 O   0  0  0  0  0
   45.3000   47.4950    9.5400 F   0  0  0  0  0
   44.3880   48.7620   11.0640 F   0  0  0  0  0
   41.4590   46.6650   14.8560 O   0  0  0  0  0
   46.2230   51.9700    6.7010 O   0  0  0  0  0
   38.2720   44.0810    9.4070 O   0  0  0  0  0
   41.7050   49.3320    9.1080 O   0  0  0  0  0
   42.2680   46.3660    9.4890 O   0  0  0  0  0
   40.8790   45.8780   12.1380 C   0  0  0  0  0
   40.0040   46.8710   12.9630 C   0  0  0  0  0
   44.6350   49.7010    8.8900 C   0  0  0  0  0
   39.4870   48.5930    6.9820 C   0  0  0  0  0
   42.8920   48.5620    7.3140 N   0  0  0  0  0
   40.3700   44.1680   10.3130 N   0  0  0  0  0
   40.1820   47.1580    8.8820 N   0  0  0  0  0
   39.6910   42.2820    9.3610 O   0  0  0  0  0
   38.2900   47.7680    6.4660 C   0  0  0  0  0
   45.2130   48.7550    9.9910 C   0  0  0  0  0
   44.5720   50.2300    6.5330 C   0  0  0  0  0
   44.2030   49.0740    7.5930 C   0  0  0  0  0
   40.2980   45.5580   10.7390 C   0  0  0  0  0
   40.6040   47.7940    7.6250 C   0  0  0  0  0
   40.2880   46.7020   14.4850 C   0  0  0  0  0
   45.4330   51.2990    7.3710 C   0  0  0  0  0
   39.3410   43.5470    9.6670 C   0  0  0  0  0
   41.7600   48.7000    8.0490 C   0  0  0  0  0
   41.0360   46.3810    9.6400 C   0  0  0  0  0
   38.8440   41.3720    8.6540 C   0  0  0  0  0
  1 24  1  0  0  0
  2 24  1  0  0  0
  3 35  1  0  0  0
  4 35  1  0  0  0
  5 35  1  0  0  0
  6 26  1  0  0  0
  7 30  1  0  0  0
  8 31  1  0  0  0
  9 25  1  0  0  0
 10 25  1  0  0  0
 11 30  2  0  0  0
 12 31  2  0  0  0
 13 32  2  0  0  0
 14 33  2  0  0  0
 15 34  2  0  0  0
 16 17  1  0  0  0
 16 28  1  0  0  0
 17 30  1  0  0  0
 18 25  1  0  0  0
 18 27  1  0  0  0
 19 24  1  0  0  0
 19 29  1  0  0  0
 20 27  1  0  0  0
 20 33  1  0  0  0
 21 28  1  0  0  0
 21 32  1  0  0  0
 22 29  1  0  0  0
 22 34  1  0  0  0
 23 32  1  0  0  0
 23 35  1  0  0  0
 26 27  1  0  0  0
 26 31  1  0  0  0
 28 34  1  0  0  0
 29 33  1  0  0  0
M  END
>  <MOLID> (1dy9A1)
1dy9A1

>  <SMILES_CANONICAL> (1dy9A1)
CC(C[C@@H](C(=O)N[C@@H]([C@H](C(=O)O)O)CC(F)F)NC(=O)[C@@H](NC(=O)OC(C)(C)C)CCC(=O)O)C	

>  <FINGERPRINT> (1dy9A1)
0000000000000011000000000000000000000001010000000111000000000000000000000001000000000000000000000000010000000000000001100000000000000000000110000001000010000000000000000000000110000000000000000000000000000000000000000000000000100000000000000000000000001000000000001000000000000010000000000000000000000010000000001000000000000000001000000000000000000000010000000000000111110000000000000000111000000000100000000011001000000001000000000010000000000001100000000001100000000000000000000000000000011010000001000000100000010000000010100000000000000000000000000000100000000000000000010000000011000000000010000001000000000000000000000000001000000001000000000000000000000000000000000011000000010100000011100101000000000111000000000000000010000011000000100001000000000000000110000000000000000000000100000000000100000000000000000000000000000010000000000000000000000000011000001001000000100000000000000010000000001000000000000000001000000000000010100000010000000000000000011010000000000000010000000000000000000000100000000010101000000000

>  <MACCS166> (1dy9A1)
000000000000000000000010000000000000000001000000000011000000000001000001010000100000000001110010100000010110011100101100001001000011010100111100011010110111111110010000

>  <OB_MW> (1dy9A1)
511.234

>  <OB_logP> (1dy9A1)
2.0336

>  <OB_PSA> (1dy9A1)
191.36

>  <OB_MR> (1dy9A1)
118.385

>  <OB_ATOMIC_CHARGES> (1dy9A1)
7.0038e-05 7.0038e-05 0.0437421798 0.0437421798 0.0437421798 -0.2090178086 -0.2456528549 -0.2427658004 -0.1983733617 -0.1983733617 -0.2456528549 -0.2427658004 -0.2245548064 -0.2714870346 -0.2714740377 0.0430127766 0.1163357637 0.0971300391 0.0310962984 -0.2023458237 -0.1610743576 -0.1963402534 -0.4407895271 0.0022069604 0.3203848522 0.2737461093 0.1424742801 0.1766772019 0.1727576699 0.364931168 0.3963820586 0.4212970552 0.261253585 0.2617380045 0.1378772451

>  <MCT_HBD> (1dy9A1)
6

>  <MCT_HBA> (1dy9A1)
12

>  <ENSEMBLE_TOTAL> (1dy9A1)
50

>  <ENSEMBLE_COORDS> (1dy9A1)
-3.1819 1.1048 -3.0934 -1.7025 0.6898 -5.0069 -3.2011 -5.2515 -0.9260 -0.8609 -5.6808 -0.3266 -2.6348 -6.4955 1.1558 2.6966 3.7356 -3.1787 1.1147 -2.2225 4.6028 3.5873 5.3333 -0.9692 3.4039 3.3985 1.4887 4.3979 1.5139 1.9000 0.5764 -0.0239 4.3100 5.5153 4.4066 -1.7488 -4.2656 -4.0786 1.7668 -0.1682 3.1185 -0.0990 -3.2424 0.2652 -0.0186 -1.4057 -0.9636 2.4232 -0.1141 -1.6949 2.7009 3.3170 1.7137 -0.1437 -0.6948 0.7240 -2.7678 1.3467 2.0530 -1.4873 -3.1659 -2.1357 1.2262 -0.9552 0.1663 -0.4055 -2.1167 -4.1444 0.9690 -1.9416 0.3760 -3.5502 3.2867 2.0537 1.3272 3.4307 3.2391 -2.0781 2.5308 2.7033 -0.9756 -1.9139 -1.4299 1.0792 -0.9357 1.2394 -1.3674 0.5295 -1.1893 3.9493 4.3027 4.3654 -1.5915 -3.2681 -3.5053 1.3383 0.1080 2.2328 -0.9066 -2.1428 -0.2449 0.1751 -2.2321 -5.3723 0.2284
-4.2639 1.5938 -1.0290 -3.2836 3.5545 -2.1353 -0.2067 -6.6083 -0.2684 -2.4756 -6.8960 -1.1466 -1.0084 -5.2307 -2.1882 2.3338 2.1124 -3.7398 -3.1149 -0.0387 5.3555 5.3456 2.8626 -2.0753 3.3455 3.2167 1.9779 5.1086 2.6701 0.8279 -0.9023 -0.5838 5.3903 4.9252 2.3923 -4.2468 0.0109 -3.6981 0.1912 0.6994 2.4099 0.9725 -2.4180 -1.0857 -0.7016 -2.5446 -1.1302 2.5792 -1.9564 0.0500 3.3184 3.2186 3.3864 -0.3404 -1.9924 2.3323 -0.4165 1.1647 2.5055 -1.2940 -1.9508 -3.0143 1.2058 -0.8928 0.2997 0.3640 -1.9318 -4.9263 0.0453 -2.9822 2.1975 -1.5485 3.7518 2.5987 0.8359 3.0588 2.8740 -2.7776 2.6200 2.4493 -1.3781 -1.5977 -1.6472 1.5165 -0.8248 1.3810 -0.5967 -1.9060 -0.2442 4.7824 4.5150 2.6433 -3.1204 -1.1763 -3.8626 0.4494 0.4292 2.1243 -0.1914 -1.7138 -0.8033 0.2613 -1.3845 -5.8848 -0.8789
0.0923 1.6811 -4.6511 -2.2149 0.8346 -4.4476 -2.7841 -5.4133 -0.7058 -0.4722 -5.6002 0.0947 -2.2823 -6.5080 1.4722 2.5902 3.8076 -2.9597 0.0475 -1.9061 5.2550 2.8065 5.7742 -0.8741 3.2614 0.4364 -1.3470 4.1483 0.0995 0.6034 0.7671 0.0915 4.4169 4.9640 5.1871 -1.2932 -4.1534 -4.2405 1.8584 -0.5309 3.2093 0.0254 -3.3898 0.0886 -0.0536 -1.5802 -0.8548 2.6012 -0.2840 -1.5331 2.9783 2.9782 2.0885 0.3037 -0.6393 0.6126 -2.5515 1.1431 2.2846 -1.2689 -3.1918 -2.2105 1.3811 -1.0774 0.2395 -0.1943 -1.9574 -4.1242 1.2044 -1.0694 1.4804 -3.7097 3.9001 1.0639 -0.3242 3.2098 3.5875 -1.7083 2.2597 2.9893 -0.6817 -2.0020 -1.4020 1.2568 -1.0479 1.2374 -1.2355 0.2211 -0.9912 4.2719 3.7732 4.9108 -1.2691 -3.1824 -3.5856 1.4902 -0.1287 2.3382 -0.7444 -2.2684 -0.2805 0.2818 -1.9062 -5.3924 0.5245
-4.2973 0.4962 -2.3989 -3.7556 2.9094 -2.2404 -0.7349 -4.7220 -1.3619 1.1671 -4.3704 0.1477 -0.7221 -5.7339 0.9159 3.0391 2.2819 -3.2051 -1.3170 -2.2166 5.2659 3.8281 4.5464 -1.7339 2.6527 -0.3301 0.0744 3.3649 0.3108 2.0195 -0.1938 -0.2434 5.5212 5.6612 3.1965 -1.6061 -3.0796 -4.0058 0.3426 0.1545 3.2410 -2.6818 -2.8994 1.2112 0.8053 -1.6994 -0.6006 2.6944 -0.4729 -1.2059 3.3348 2.6627 1.9709 0.5359 -1.9625 1.2217 -2.8321 1.1395 1.6390 -1.3423 -2.5865 -1.8066 0.7759 -1.1734 0.5948 -0.6282 -0.9004 -3.3359 0.6426 -3.4225 1.6056 -2.9227 3.3693 0.6417 0.6986 3.4819 2.2087 -1.8587 2.3162 2.3449 -0.8945 -1.6356 -0.8091 1.2032 -1.2854 1.6877 -1.5591 -0.6324 -1.1387 4.8155 4.4521 3.3437 -1.7125 -2.2497 -3.1271 0.5539 0.0646 2.2792 -1.9194 -2.0002 0.4494 0.4670 -0.3335 -4.5344 0.0834
-4.1801 2.7336 -1.1675 -2.5969 2.8525 -3.0512 -0.1870 -6.4228 0.2988 -2.5257 -6.6814 -0.4022 -1.0586 -5.1963 -1.6949 2.0989 2.4542 -3.9624 -3.5806 -0.8013 5.5561 5.3190 2.4823 -2.5273 4.3991 3.9171 1.3717 4.6170 1.9714 0.4325 -3.0796 -2.9339 4.9133 4.6736 2.2097 -4.6815 0.1353 -3.4394 0.3752 0.8902 2.6862 0.8477 -2.1940 -0.8989 -0.5135 -2.1943 -0.6797 2.8232 -1.7015 -1.0923 4.1923 3.3626 3.6071 -0.6876 -1.7608 2.6674 -0.7342 1.2555 2.6410 -1.4433 -1.7148 -2.6450 1.5200 -0.9658 0.7587 0.5414 -1.8140 -4.6485 0.5576 -2.8496 2.2504 -1.6909 3.7354 2.9837 0.6392 3.0515 2.9793 -3.0514 2.6964 2.6036 -1.6173 -1.3256 -1.2691 1.7294 -0.6971 1.5961 -0.6037 -2.8379 -1.7364 4.9164 4.3985 2.4842 -3.5207 -1.0172 -3.5632 0.7732 0.5839 2.3207 -0.2832 -1.5634 -0.4823 0.4529 -1.3723 -5.7088 -0.3078
-2.9454 1.8286 -2.3401 -2.8507 -0.4909 -3.1576 -3.8783 -5.6789 1.4624 -4.5003 -5.4613 -0.8993 -2.4196 -6.6244 -0.3213 1.7292 4.8835 0.0377 -1.8012 -0.1985 5.5977 4.6567 4.0383 0.1765 4.7820 2.3675 -4.2652 4.9706 1.8615 -2.1619 -3.9109 -0.7095 4.8951 4.4257 6.1831 -0.5425 -1.0472 -4.6728 1.4997 2.1747 0.3139 -1.3512 0.5683 0.1998 1.8858 -1.1633 -1.6629 3.1876 -2.1279 -0.5015 3.2941 3.0488 3.0129 -2.8541 -0.8329 0.5463 -2.2326 1.3870 2.4904 -1.1703 -1.6444 -2.5036 0.9573 -0.1201 -0.5508 -0.1823 -2.6465 -4.2303 -0.0852 -2.3353 0.4675 -2.1129 4.5413 2.8334 -3.0104 2.6608 4.6054 -0.9907 2.6552 3.1415 -1.3970 -0.6431 -1.8768 1.7833 -0.1653 0.7125 -0.8837 -2.7307 -0.4992 4.6596 3.9942 5.0421 -0.4470 -1.7286 -3.8763 0.8621 1.2663 1.1140 -1.1483 -0.0334 -0.6190 1.1911 -3.3359 -5.4855 0.0637
-3.8235 3.0352 0.2270 -2.6440 3.4121 -1.8966 -0.7410 -6.8116 0.5017 -2.6279 -6.5225 -1.0400 -0.4846 -5.4534 -1.5760 1.7393 3.0303 -3.8492 -3.8909 -2.3004 4.8225 5.1332 2.4896 -3.1728 5.2004 3.1008 1.0494 5.0276 1.4259 -0.3229 -4.4123 -0.0799 4.8312 4.1092 2.9595 -5.1378 0.2087 -3.9707 0.8683 1.5366 2.2467 1.0422 -1.8203 -0.9307 -0.4934 -1.9121 -0.9005 2.9477 -3.4150 -1.0773 2.8804 3.7426 3.3478 -0.7503 -1.3886 2.7007 0.1135 1.4287 2.7067 -1.2228 -1.7099 -2.8419 1.4861 -0.5087 0.5169 0.7519 -1.8924 -4.6919 0.2566 -2.6850 2.5661 -0.6471 4.3139 2.4060 0.2878 2.8963 3.3075 -3.0734 2.7973 2.6330 -1.7066 -1.1822 -1.5301 1.7737 -0.4147 1.5863 -0.2208 -3.9631 -1.0671 4.2691 4.0711 2.8748 -3.9170 -1.0106 -3.8465 0.8641 0.9696 2.1647 -0.0434 -1.2375 -0.6378 0.5453 -1.4102 -5.8485 -0.4487
-3.8146 1.7169 -0.1364 -3.3443 3.6498 -1.5934 -3.3563 -6.9684 -0.3650 -1.6578 -5.9908 -1.8365 -0.9954 -7.1248 0.2832 3.3218 3.6654 -2.9150 -1.1007 0.5915 4.7548 4.4096 1.1906 -0.5688 1.1529 3.0275 2.1949 0.8444 4.7379 0.8844 0.8359 -0.5623 4.4007 4.7594 1.3590 -2.8063 -0.0762 -4.2489 -0.0556 0.9014 1.9952 -3.0298 -2.1242 -1.2168 -1.1955 -1.4999 -0.8643 2.0943 -0.4926 0.1739 2.5325 2.8522 3.5198 0.6747 -1.4757 2.3150 -0.6654 1.5635 2.0779 -0.8117 -1.7286 -2.9060 0.8504 -0.3648 0.1288 -0.5331 -2.2034 -5.0309 0.3471 -2.8909 2.2685 -1.1936 1.7866 4.0684 1.5940 3.6377 3.1667 -1.6316 2.4037 3.2504 -0.7480 -0.9914 -1.6632 0.9102 -0.6451 1.2668 -1.3696 -0.1654 -0.0046 3.9778 4.3006 1.8140 -1.7677 -1.2270 -4.0769 0.3311 0.6698 1.8380 -1.8331 -1.2592 -0.9118 -0.3799 -2.0259 -6.2522 -0.3939
-2.6445 2.4336 -1.8580 -2.2079 4.2032 -0.1845 -1.2033 -7.1483 0.7634 -3.5030 -7.0317 -0.0857 -1.6687 -6.2287 -1.5040 4.7311 4.1654 -2.2041 -3.5208 1.2547 2.6143 1.4258 4.3394 -3.2544 3.5648 -0.4116 -1.1815 5.3677 0.4216 -2.0638 -2.7777 0.7878 4.7210 2.6615 5.9376 -2.1991 -0.1557 -4.4144 0.3550 1.4369 2.1776 1.3502 -1.8818 -1.1700 -0.3891 -1.3156 -1.2135 2.9483 -2.7985 -0.9265 3.0277 4.1041 1.7990 -0.6739 -1.3340 1.9420 0.1826 1.7584 2.4022 -0.9420 -1.7031 -3.1637 1.5275 -0.0299 -0.1000 0.5162 -2.3738 -5.0232 0.4710 -1.6458 2.9814 -0.8676 4.0823 0.7187 -1.7337 3.4225 3.6238 -2.2626 3.1107 2.9171 -0.9512 -0.9173 -1.9638 1.6931 -0.1041 1.1498 -0.2037 -3.0013 0.4482 3.5694 2.4904 4.7752 -2.5337 -1.2990 -4.2303 0.7587 1.1176 1.9418 0.1898 -1.0276 -1.0581 0.4841 -2.1601 -6.3363 -0.0796
-3.1706 3.2507 0.5609 -2.7562 3.3346 -1.8630 -1.4681 -7.1459 0.4110 -3.8051 -6.6193 -0.1186 -2.0463 -5.8806 -1.6564 2.9829 2.7505 -3.9294 -2.1202 -2.5768 4.9201 4.6473 1.5945 -0.9704 3.6087 5.9219 0.9291 1.6089 5.3289 0.3336 -2.3926 -0.3757 5.4513 4.8016 0.8328 -3.0998 -0.1791 -4.3542 -0.0400 1.4275 0.7566 -2.4336 -1.9757 -1.1154 -0.6422 -0.8754 -1.0016 2.6109 -2.2972 -1.0555 3.1390 3.4210 4.1626 -0.5661 -1.0121 2.4836 -0.3311 1.6482 2.5968 -1.0492 -1.4690 -2.9718 1.2925 -0.1889 0.2096 0.0134 -2.3364 -4.8916 0.5617 -2.4967 2.5547 -0.5970 2.8728 5.4988 -0.1366 3.5887 2.8887 -2.6662 2.6181 3.4901 -1.6635 -0.6766 -1.7584 1.3034 -0.3855 1.2611 -0.9649 -2.2699 -1.2637 4.6209 4.3742 1.6502 -2.2954 -1.2265 -4.0952 0.5411 0.9761 1.5254 -1.5865 -1.0460 -0.8744 0.1228 -2.3819 -6.1122 -0.2015
-3.8091 1.5470 -1.6039 -2.7329 2.5386 -3.6059 -3.3777 -7.0645 1.5332 -2.8791 -6.1939 -0.7091 -1.0408 -6.7985 0.8638 1.6385 3.7571 1.1151 -2.1341 1.0373 4.8181 5.1221 3.8600 0.4036 4.2716 1.6239 -3.7440 4.8775 3.6321 -3.1713 -1.0826 -0.9636 5.1370 3.7411 5.3633 1.3955 -0.5667 -4.1005 0.3359 1.5679 0.8961 -3.0111 -2.4098 -1.2257 -1.0134 -2.0097 -0.4397 2.1003 -0.9538 0.1495 3.0038 3.8196 2.3086 -1.5644 -1.3583 1.8827 -1.6476 1.5476 1.8185 -0.8799 -2.1478 -2.6850 1.2499 -0.4400 -0.1019 -0.5277 -2.5032 -4.8893 1.3036 -2.5779 1.5581 -2.4736 3.8915 2.7106 -3.0192 2.8394 3.2714 0.5347 2.5653 2.8633 -0.9115 -1.3896 -1.4586 1.1721 -0.4148 0.7051 -1.7205 -1.3885 -0.0221 4.4213 3.9038 4.3139 0.7874 -1.6410 -3.9120 0.8957 0.9964 1.1656 -1.9584 -1.4991 -0.9402 -0.2413 -2.4256 -6.2070 0.7319
-3.0188 0.8409 -3.1040 -1.9921 3.0318 -3.5221 -2.5195 -6.9750 0.9746 -4.8137 -6.3622 0.3673 -3.0503 -6.1518 -1.3154 3.8289 3.2318 -2.7647 -0.0000 -0.3192 5.3848 4.2141 2.4240 0.7171 -0.0856 5.2082 -0.0710 1.3942 6.5129 -0.9960 1.8891 -1.1801 4.4416 5.1910 1.5151 -1.1220 -1.0032 -4.4779 -0.1078 2.2763 0.7001 -1.7673 -2.2895 -1.0290 -0.5544 -0.8691 -1.0867 2.5377 -0.2788 -1.8995 3.6703 2.1808 4.6252 0.1671 -1.2114 1.6685 -1.6276 1.3182 2.5777 -0.8113 -1.9354 -2.9140 1.3221 -0.2254 -0.0476 -0.1704 -3.1824 -4.6540 0.6098 -1.7285 1.6231 -3.0473 1.1551 5.7335 0.0879 3.6750 3.3941 -1.3746 2.2241 3.6950 -1.0335 -0.9030 -1.8880 1.2428 -0.0846 0.6780 -1.4219 0.6712 -1.0905 4.4966 4.4261 2.3258 -0.6166 -1.9472 -4.0644 0.5573 1.2900 1.3293 -1.3890 -1.2398 -0.9592 0.0805 -3.3558 -6.0159 0.1593
-3.5699 1.0080 -1.7319 -2.5885 2.6664 -3.2618 -2.4732 -6.9432 1.6474 -4.7267 -6.5956 0.7529 -2.8185 -6.4924 -0.7813 1.5637 3.2881 1.3849 -1.1221 1.5629 3.9782 4.9346 4.1581 0.7825 5.3712 3.8344 -2.6181 3.2338 4.1752 -2.7961 -0.9420 -0.4736 4.9916 3.1526 5.4243 1.3997 -0.9408 -4.6545 0.6288 1.8077 1.0868 -3.0678 -1.8466 -1.8494 -1.3763 -1.4890 -0.5754 1.7926 -0.3187 -0.2110 2.6773 3.9770 2.4645 -1.3470 -1.1612 1.5520 -1.5686 1.8086 1.5355 -0.7963 -2.1955 -2.7785 1.1327 -0.0735 -0.5055 -0.7545 -3.2291 -4.7588 0.8743 -2.3329 1.3825 -2.5113 4.1681 3.2009 -2.6552 2.8315 3.0903 0.7765 2.6321 2.7317 -0.6929 -1.1536 -1.7896 0.9521 -0.1262 0.4751 -1.8138 -0.8336 0.2397 4.0055 3.6111 4.3654 0.9964 -2.0198 -4.1190 0.8610 1.2508 1.0775 -1.9716 -1.1012 -1.3954 -0.5132 -3.2800 -6.1776 0.6233
-3.0606 3.1183 -0.0687 -2.1545 2.8049 -2.3391 -1.6664 -7.3436 1.1785 -3.8962 -6.9783 0.2255 -1.9318 -6.3057 -1.0778 1.8656 4.5146 0.1799 -3.0144 0.9302 4.4894 4.5429 4.8538 -2.0121 5.5268 0.7944 -2.7921 4.3666 2.4423 -3.6098 -3.6087 1.0193 2.2877 3.5220 6.3926 -0.7048 -0.3574 -4.6829 0.8752 1.6952 0.2190 -2.0495 -2.0154 -1.3396 -0.4568 -1.3295 -1.1544 2.9139 -2.8021 -1.0375 3.2444 4.2684 2.0753 -1.2973 -0.8106 2.1508 -0.3618 2.0159 1.8487 -0.4400 -1.9047 -3.1165 1.5763 -0.2346 -0.1142 0.3830 -2.6163 -5.1276 0.9387 -2.2030 2.2371 -0.9418 4.3460 1.4567 -2.6752 3.1325 4.0387 -0.2630 2.9321 2.7720 -1.0933 -1.0346 -1.9695 1.6686 -0.1790 0.8246 -0.7095 -3.1807 0.4053 3.2525 3.7139 5.2214 -1.0085 -1.5130 -4.3418 1.0996 1.2614 0.9361 -1.1489 -1.1803 -1.1256 0.4178 -2.4957 -6.4188 0.3192
-0.5352 -2.2407 -2.5794 -0.9046 -0.4705 -4.2401 -4.5117 -4.8363 -0.0481 -5.5885 -2.7050 -0.6029 -3.6814 -3.4510 -1.9480 1.8426 4.7834 -3.1885 -0.2429 -1.4210 6.1492 4.7363 2.8303 -2.5082 1.5573 5.8297 1.7059 2.6994 3.9886 1.5341 -1.7981 -2.8976 5.3705 3.4014 2.9423 -4.3470 -1.6330 -4.1294 0.0990 0.1095 2.2010 0.5262 1.7319 -2.1644 0.2624 0.1297 -1.6329 3.1093 0.3064 -2.6395 4.2227 1.4968 4.7262 -0.3507 -0.5370 0.1298 -1.8752 1.3185 2.5104 -1.4233 -1.5176 -2.2496 1.4405 0.2389 -0.4004 0.3539 -3.4216 -2.7011 0.3531 -0.1616 -0.8336 -2.9770 1.5429 4.5878 1.1544 2.8376 4.2151 -2.3558 2.2102 3.6110 -1.1045 -0.1150 -2.3208 1.7835 0.5913 0.2903 -0.8721 -0.7070 -2.3546 5.2846 3.6424 3.2511 -3.1885 -2.1428 -3.1244 0.5824 0.6559 1.7514 -0.4781 0.7142 -1.6415 0.7104 -4.2651 -3.4341 -0.5546
-3.4826 2.1188 -1.9699 -3.6369 3.5740 0.0179 0.4887 -6.4168 0.6349 -1.7950 -7.2262 0.2532 -0.7879 -5.7045 -1.3860 2.2098 4.2511 0.1795 -3.2543 1.7427 3.9875 5.3891 3.2463 -1.0433 3.2848 -0.5126 -3.1157 4.5793 1.1529 -3.6451 -3.1816 0.0754 5.5448 4.4518 5.2902 -0.7432 0.2200 -3.4585 0.3364 0.5507 0.5125 -2.4966 -2.3246 -1.1804 -0.6865 -2.4595 -0.8715 2.5691 -1.7612 -0.0167 3.5995 3.5083 1.2145 -1.5735 -1.3943 2.7787 -0.6653 1.3357 1.7712 -0.7105 -1.7498 -2.8226 1.3708 -1.0966 0.5387 0.2681 -1.4406 -4.9684 0.8481 -2.7737 3.1700 -1.1505 3.4092 0.8395 -3.0321 3.1743 3.2840 -0.2151 2.5541 2.3506 -1.2509 -1.4647 -1.4192 1.5690 -1.0275 1.3386 -0.9244 -2.8025 0.5708 4.4943 4.3624 4.0704 -0.7194 -0.8828 -3.7238 0.8011 0.3590 1.1825 -1.4845 -1.6934 -0.7078 0.2541 -0.8677 -6.0444 0.0843
-1.3840 -2.1722 -3.4930 0.5975 -0.9385 -4.2665 -5.0007 -4.4142 0.2556 -5.7505 -2.1379 -0.2667 -4.0364 -3.1722 -1.6788 3.8468 2.3763 -2.6220 0.7138 -1.4064 6.0262 3.6817 5.5237 -1.0766 -0.4635 5.7159 -0.1125 1.3696 5.0859 0.8741 -0.5012 -3.3185 5.7499 5.3429 4.5673 -2.2824 -2.0236 -4.1385 0.2579 -0.1747 1.8980 0.1261 1.4564 -2.5714 0.0974 0.2643 -1.6868 3.0372 0.9969 -2.5749 4.0146 1.0232 4.4101 -1.3466 -0.5276 -0.2974 -2.1553 1.3866 2.0264 -1.5889 -1.6264 -2.3716 1.6956 0.0320 -0.7476 0.1611 -3.5764 -2.4736 0.6044 -0.1374 -1.4481 -3.0508 0.4070 4.6800 0.0069 3.1335 3.5685 -2.3236 2.0462 3.2855 -1.2889 -0.1914 -2.4788 1.8333 0.4881 -0.1033 -1.0480 0.3059 -2.4988 5.3374 4.1847 4.5621 -1.8855 -2.3763 -3.0963 0.7985 0.5306 1.3702 -0.7275 0.5204 -1.9564 0.6029 -4.5580 -3.0663 -0.2653
-1.9572 2.9123 -2.2101 -3.2089 0.7905 -2.2978 -3.0183 -6.1046 0.9700 -2.7008 -5.9094 -1.4530 -0.7548 -6.3748 -0.0369 3.3565 3.8062 0.2463 -4.4908 -2.2485 5.2278 5.5687 2.9253 -1.0032 3.0069 4.0632 -5.4332 3.0893 1.9823 -4.8231 -3.1869 -0.8139 6.4308 5.4571 4.8777 -2.1727 -0.9009 -4.2445 2.0518 2.2834 0.5792 -0.3329 -1.0898 0.9457 2.4289 -2.5564 -1.2606 3.1919 -2.2784 -1.9489 4.5083 2.2839 3.5423 -3.2852 -0.8665 0.7812 -1.5554 1.4860 2.5446 -1.2556 -1.7830 -2.3000 1.1523 -0.1755 -0.1093 0.5947 -1.8455 -4.2067 -0.0426 -2.1556 1.5688 -1.5499 3.2851 3.2512 -4.3768 3.4595 4.0029 -1.1503 2.6938 2.9542 -1.9466 -1.3843 -1.4420 2.2448 -0.0941 1.0425 -0.2812 -3.3422 -1.5807 5.4922 4.9197 4.0009 -1.5098 -1.4718 -3.6464 1.1449 1.3533 1.3239 -0.6232 -0.9126 -0.0750 1.7628 -2.0692 -5.6297 -0.1081
-0.5865 -2.2245 -3.8938 1.8595 -1.9777 -3.7585 -5.3308 -3.6811 -0.5682 -5.4790 -1.5982 -1.8556 -3.6520 -3.1622 -2.3373 -0.0377 3.2794 -2.5868 1.0490 -0.8436 5.7235 1.6422 5.9727 -1.0911 4.4135 2.5530 -1.0926 4.5434 2.6637 1.0728 -1.0908 -0.6115 6.4824 1.4065 5.4216 -3.2853 -2.5356 -3.7222 0.3705 3.0193 0.3068 -0.1526 1.2511 -2.3194 1.5125 -0.9232 -1.0793 3.3179 -0.6345 -1.9409 4.5252 2.5752 3.4472 0.0992 0.3933 -0.6859 -2.2325 1.1846 1.6350 -0.6601 -2.2663 -1.6686 1.3941 0.0275 -0.8785 0.1814 -3.7295 -1.8663 -0.2880 0.5771 -1.9958 -2.9619 4.0795 3.3221 -0.0251 0.7302 3.8581 -1.5418 1.8070 2.8776 -1.0812 -1.0371 -1.9503 2.0899 1.0155 -0.7677 -0.8619 -0.2879 -1.0558 5.6762 1.3064 5.1334 -2.1023 -2.8248 -2.5357 0.4830 1.8621 0.4400 -0.5444 0.1961 -1.7510 1.2335 -4.5234 -2.5944 -1.2411
-3.1494 2.3667 -0.6345 -1.6905 4.2485 -0.0055 -3.6258 -6.9744 -0.7556 -2.9450 -5.1718 -2.2773 -1.2807 -6.8180 -1.4253 3.8094 0.6009 -1.4756 -1.8508 0.9274 3.8992 2.9409 2.7179 -4.1468 4.2834 5.0143 0.4991 2.2658 5.6182 -0.0613 -2.7123 -0.6252 5.3330 1.7816 0.9191 -3.3640 -0.2644 -4.3579 -0.5375 1.9662 1.6447 1.4117 -1.7983 -1.0666 -0.4013 -0.9204 -1.7552 2.8230 -2.3127 -1.1957 3.0272 3.4377 4.2663 -1.5656 -1.0476 1.9387 0.5900 1.7857 2.7185 -0.6340 -1.5568 -3.3428 1.0888 0.1579 -0.1940 0.4895 -2.3221 -5.1869 0.0731 -1.7187 2.8066 -0.4494 3.5087 5.3799 -0.5510 3.6102 1.8661 -2.0641 3.1727 2.8772 -1.0157 -0.6783 -2.2375 1.4042 0.0879 1.1542 -0.0383 -2.3129 -0.3034 4.2241 2.6654 1.7524 -3.2344 -1.2922 -4.2914 0.1274 1.3864 1.8288 0.3457 -0.8672 -1.1170 0.3967 -2.5137 -6.0082 -1.0958
-2.6536 4.0700 0.5113 -4.1033 2.7271 -0.9543 -0.8355 -6.3351 -0.6056 -0.8581 -6.4172 1.8461 -2.9741 -6.6630 0.6300 3.4717 0.6837 -1.7068 -2.7160 -1.0240 4.9213 4.4524 2.1896 -3.7210 4.1420 6.2559 -0.0981 3.0404 5.8333 -1.9197 -4.1167 -2.7352 4.3530 6.0497 2.7847 -2.2109 -2.9579 -4.2459 -1.2090 0.7512 1.0877 -2.2887 0.7381 -0.5609 1.0713 -2.3024 -1.5806 1.9213 -2.0497 -2.4088 3.1615 3.2832 4.1156 -0.3468 -1.6660 2.4228 -1.0477 1.6252 2.4397 -0.6121 -1.7463 -2.5222 -0.2839 -0.9913 0.2204 -0.2563 -1.8136 -4.5495 0.7570 -2.8337 2.7200 -0.1380 3.9240 5.2938 -1.0396 3.9221 1.9884 -1.4138 2.7959 3.0102 -1.2721 -1.2292 -1.8972 0.9089 -0.5924 1.6128 -0.3496 -3.0904 -2.0955 4.1825 4.9245 2.3766 -2.4650 -2.2169 -3.8211 -0.3280 0.6469 1.6773 -1.2179 -0.3889 -0.6829 0.5943 -1.6312 -5.9705 0.6265
-3.5775 3.1647 0.3778 -2.3645 5.1538 -0.4195 -2.3542 -6.2959 1.7716 -1.0692 -7.3132 -0.0558 0.1156 -6.5574 1.9573 1.8812 3.5004 -3.8074 -5.5450 -1.5449 2.8190 5.2577 4.0570 -2.9461 4.1610 2.0041 1.3944 5.5916 1.6205 -0.1986 -3.9135 -2.8939 3.6730 4.2828 3.1631 -4.7946 -0.7890 -3.7384 2.2838 1.5115 1.3463 0.5940 -0.9006 -0.7807 -1.4934 -3.0774 -1.3553 0.9775 -3.3231 -0.9265 2.4077 3.8111 3.0686 -0.6409 -1.1211 3.1487 0.2510 1.4674 2.8431 -1.1785 -1.2958 -2.8138 0.2286 -1.0508 0.7490 0.2447 -0.8250 -4.9995 0.3632 -2.3819 3.6456 -0.4083 4.2714 1.8090 0.0527 2.9228 3.7482 -2.8680 2.8045 2.7444 -1.7293 -1.5939 -1.4954 0.7217 -0.5852 1.9209 -0.4560 -4.2574 -1.9071 3.0400 4.1983 3.5882 -3.6514 -0.9723 -3.8465 1.0759 0.9116 1.9531 -0.2867 -1.1532 -0.5014 -0.3265 -1.0382 -6.2586 1.0272
-2.2594 3.1788 -3.0846 -2.2265 2.1998 -5.3325 -2.2913 -6.6255 1.9831 -4.2726 -5.7819 3.1511 -4.3760 -6.0915 0.7225 3.3051 1.0003 -0.1749 2.0958 -1.8708 3.6568 4.9208 3.5706 1.1731 2.4864 5.8270 -0.8425 1.0504 6.4554 0.6603 -0.0063 -2.7076 3.9521 4.9401 3.1357 -1.0661 -1.9120 -4.7052 -0.2276 1.6636 1.4616 -2.7282 -1.9137 0.0819 0.2861 0.4876 -2.0753 0.8947 0.4551 -1.1983 2.1276 1.5589 4.1900 0.5472 -0.9873 1.0514 -3.5447 0.8831 2.2222 -0.6763 -1.9023 -2.6328 0.7962 -0.5870 -0.3290 -1.5718 -3.0515 -4.3217 1.7359 -2.2144 1.8808 -3.8560 1.3279 5.4639 -0.2299 3.1393 2.3109 0.3364 2.0122 3.0627 -0.3571 -0.7903 -2.0522 0.0787 -0.6221 1.0264 -2.0756 0.7906 -2.0232 3.3283 4.4252 3.0235 0.0363 -2.2496 -3.9620 0.6879 0.7693 1.5818 -1.8961 -1.1733 -0.6544 -0.3601 -3.4757 -5.6931 1.8695
-0.1935 -2.5734 -3.3156 2.0330 -1.5157 -3.3514 -5.2756 -3.6885 -1.0305 -5.4404 -1.3033 -1.5885 -3.5333 -2.5871 -2.4362 1.5483 2.7042 -3.7300 1.3890 -1.7233 5.5504 3.2925 5.3918 -2.2479 1.7640 5.0037 1.7878 3.5237 4.2097 0.7871 -0.6169 -1.4725 6.6105 3.0236 4.8082 -4.4212 -2.4021 -3.8785 -0.0663 1.0366 1.4156 1.0419 1.1888 -2.7789 1.1593 -0.8401 -1.7391 3.4154 -0.4836 -2.6867 4.5339 1.4601 4.0847 -0.3234 0.2700 -0.6471 -1.8583 1.1405 1.8472 -1.2300 -2.2824 -2.2355 1.5554 -0.0794 -0.9568 0.4996 -3.7807 -2.0331 -0.0791 0.8585 -1.8881 -2.4814 2.1998 3.9925 0.9898 1.6856 3.7005 -2.7291 1.9309 3.0701 -1.3538 -0.9843 -2.5076 2.1230 0.8517 -0.4369 -0.4771 0.0510 -1.8894 5.6766 2.7497 4.6458 -3.2383 -2.7840 -2.8204 0.4189 1.0255 1.0305 -0.1258 0.1543 -2.1162 1.2052 -4.4807 -2.4266 -1.2710
-3.6536 3.2338 -0.2378 -2.7466 4.5939 -2.0818 0.6218 -6.2819 0.7904 -1.6776 -7.0736 0.4656 -0.6458 -5.6900 -1.2759 3.7548 1.0487 0.6183 -2.7352 2.1062 3.8245 2.7450 4.4431 0.2626 2.8728 -0.1075 -4.1597 4.3673 1.4653 -4.2646 -2.5275 0.5324 5.4643 2.5752 3.0049 2.0182 0.3760 -3.3399 0.2155 0.3780 0.8486 -3.0190 -2.2103 -1.1576 -0.7844 -2.1005 -0.5943 2.4915 -1.3003 0.3062 3.4020 3.4473 0.9614 -2.1874 -1.3176 2.9066 -0.9848 1.3630 1.3842 -0.9862 -1.4925 -2.6217 1.3762 -1.0951 0.7052 0.0262 -1.2804 -4.7866 0.8985 -2.7244 3.2358 -1.4271 3.1980 1.1195 -3.6645 3.4866 2.2405 -0.1002 2.6527 1.9425 -1.3428 -1.2108 -1.2060 1.4304 -1.0450 1.4398 -1.2098 -2.2466 0.9598 4.3549 2.8661 3.2287 0.8518 -0.6920 -3.5617 0.7745 0.3018 1.2251 -1.8517 -1.5769 -0.5869 0.0976 -0.7281 -5.9245 0.2146
-4.0833 3.3216 -1.1282 -2.9594 4.8202 -2.7247 -0.6999 -7.0064 1.0869 1.2810 -5.6286 1.5356 -0.6529 -5.6206 3.1108 1.8528 3.2224 0.9823 -4.0614 -0.2550 4.1880 5.1720 2.6909 -0.1380 4.4689 -0.2708 -3.0290 3.6112 1.6661 -3.5104 -2.0897 -1.3550 4.5274 4.1067 4.5792 0.5457 0.0749 -2.9448 2.1163 0.5982 1.5321 -3.3516 -2.0626 -1.1161 -1.7837 -2.7515 -0.8530 1.4447 -2.3771 0.0547 2.5934 3.1907 0.7589 -1.3812 -1.6607 3.1038 -1.5464 1.0138 1.7548 -1.0743 -1.3901 -2.5487 0.3767 -1.5016 0.8524 -0.7009 -0.8462 -4.6562 0.8798 -2.9959 3.4179 -2.1710 3.3613 0.5001 -2.8598 2.8740 2.4938 0.3232 2.4331 2.0373 -1.0665 -1.5369 -1.1314 0.5860 -1.2589 1.6817 -1.8555 -2.7937 -0.6069 3.8665 4.0784 3.3944 0.2465 -0.6496 -3.3486 1.2135 0.2144 1.6547 -2.1915 -1.7359 -0.5035 -0.7729 -0.2241 -5.6915 1.6625
-2.8944 3.8080 0.3401 -4.4539 2.2736 -0.7833 -0.4370 -3.2103 -2.2604 1.4610 -3.8191 -0.8335 -0.1959 -5.5366 -1.4082 3.0104 -0.1625 -1.4774 -2.4713 0.1016 5.7164 4.0081 0.8686 -3.7580 3.9255 5.5956 -0.9521 2.7557 4.8578 -2.6248 -4.0973 -1.4972 5.8023 5.6583 1.6916 -2.4241 -2.8146 -4.1840 -0.6638 0.3061 0.1703 -1.9150 0.4261 -0.8146 1.5987 -2.5314 -1.2713 2.9902 -2.1805 -1.7891 4.3667 3.0389 3.4594 -0.7686 -2.0276 1.8554 -0.9092 1.2788 1.8706 -0.6600 -2.4862 -2.5813 0.9463 -1.3768 -0.1361 0.3150 -0.7053 -3.7484 0.1225 -3.1472 2.3683 -0.0330 3.6653 4.4782 -1.6898 3.5233 1.1504 -1.4471 2.4490 2.2366 -1.4600 -1.6653 -1.9232 1.9391 -0.9345 1.1808 -0.1021 -3.0382 -1.0767 5.3620 4.5129 1.2873 -2.5725 -2.0563 -3.5497 0.0634 0.2628 1.0067 -1.0184 -0.7625 -0.8899 1.2925 -0.0060 -4.0709 -1.0939
0.8751 -1.2892 -3.7213 1.7744 -2.9897 -2.1795 -4.9390 -6.2044 1.1619 -6.4967 -5.0208 -0.3086 -4.2217 -5.4668 -1.1086 1.1310 4.5697 0.1896 0.1925 -0.3939 4.8456 3.6996 5.2295 0.8029 4.7513 4.3766 -4.2925 5.4185 3.6847 -2.3472 -1.2356 -1.9351 5.7410 3.4138 6.7430 -0.8795 -2.6230 -4.4998 1.4484 1.4937 1.7965 0.8052 -2.2833 0.0201 -0.3701 -1.7535 -1.2862 2.5970 -0.6895 -2.0050 3.3952 3.1218 3.6244 -2.8128 1.6244 -0.6418 -1.4516 1.6205 2.3923 -1.4297 -3.0216 -2.3157 0.7960 -0.0770 -0.3178 0.2485 -4.6743 -3.8434 0.6562 0.9664 -1.7206 -2.2792 4.4257 4.3723 -2.9694 2.0679 4.7491 -0.8531 2.6426 3.4356 -1.3788 -1.7280 -1.7786 1.1633 0.5876 0.3035 -0.8795 -0.6448 -1.4569 4.7844 3.1260 5.6842 -0.3378 -3.3619 -3.6377 0.9844 1.2946 1.5512 -0.3810 -1.4294 -0.6060 0.2507 -5.0479 -5.1233 0.1099
0.6305 1.6956 -4.6441 -0.1787 -0.5740 -5.1219 -4.2934 -6.0476 2.9250 -6.2307 -4.6133 2.4832 -4.9190 -5.4535 0.5882 3.7434 3.4041 -1.7739 2.5055 -1.8248 2.5193 3.3565 6.0152 -2.2132 0.6422 2.4790 1.7550 0.9926 4.4137 2.6773 3.0203 -2.8885 0.5722 3.7793 6.3011 0.0048 -2.0521 -4.7378 1.5230 2.1809 1.1282 -0.4111 -2.3629 -0.2163 -0.3321 -0.1880 -2.0678 1.6711 0.8363 -3.1740 1.5483 0.7815 4.3437 0.3615 0.6311 -0.0274 -2.8659 1.0522 2.8119 -1.5427 -2.5019 -2.5101 1.0748 -0.0673 -0.3880 -0.5821 -4.0397 -3.7736 2.1345 -0.1040 0.5067 -4.0719 1.3120 3.6522 1.5960 3.0532 4.1421 -0.7857 1.5455 4.0037 -0.8990 -1.1996 -2.1631 0.5452 0.1295 0.6231 -1.5939 2.2222 -2.6154 1.4573 3.4410 5.5881 -0.9298 -2.8039 -3.7691 1.5497 1.2313 1.5225 -1.0809 -1.3086 -0.8192 -0.1559 -4.8373 -4.9673 2.0177
-1.9009 4.7536 -1.1289 -1.8408 4.5406 1.3258 -2.3513 -5.8975 0.0989 -1.2931 -5.5846 -2.0929 0.1130 -6.1587 -0.1692 3.4053 0.4271 -2.1000 -3.1510 -2.3485 5.3939 2.6342 1.3315 -4.6801 3.7650 3.8062 -0.0328 3.8623 5.7508 -0.9906 -5.0690 -3.2463 4.5530 4.8349 1.9004 -4.5583 -0.5388 -4.1543 1.8655 0.0142 0.8508 -2.0327 -0.2401 0.5663 2.8532 -2.7339 -1.3294 2.7432 -3.2564 -2.7142 3.0710 2.6443 4.0894 -2.0783 -1.6017 2.5379 -0.1016 1.6219 2.1644 -0.9994 -1.3588 -2.2108 0.9203 -0.7974 0.3795 0.6149 -0.9157 -3.9801 -0.3923 -1.2856 4.0086 0.0288 3.8668 4.4142 -1.2452 3.5390 1.7701 -2.5310 2.3200 2.6116 -2.1833 -1.3484 -1.4341 2.1380 -0.3804 1.6982 0.2004 -3.9513 -2.7782 4.3910 3.7588 1.6944 -4.0146 -0.9195 -3.5148 0.8915 0.4103 1.5058 -1.0732 -0.7433 -0.0604 1.9214 -1.1125 -5.3894 -0.6064
-2.3613 3.8268 2.0494 -1.6429 5.4366 0.3236 -0.1060 -6.4445 0.8757 -1.9243 -6.6876 -0.7529 0.1472 -5.5701 -1.4423 2.1770 2.5778 -4.0615 -4.3856 -0.8118 4.7180 3.4190 -0.0142 -1.9264 3.3559 4.3732 0.5632 4.4529 5.0483 -1.1928 -4.3460 -2.9305 3.8766 2.7102 -0.1463 -4.0775 0.5622 -3.4417 0.5411 0.1916 1.1484 -2.2952 -1.7827 -0.6539 -0.5701 -2.0261 -0.8464 2.8027 -3.5050 -1.0898 2.5596 4.0604 2.7515 -0.9717 -0.4912 3.2685 0.5335 1.6971 2.2190 -0.8961 -1.4817 -2.6389 1.2611 -0.5391 0.8286 0.7042 -1.4134 -4.5424 0.1069 -1.8225 3.9742 0.6478 4.3706 4.0521 -0.2771 3.0072 2.0383 -3.0612 2.7556 2.7485 -1.7435 -1.1222 -1.2980 1.6676 -0.6200 1.9552 -0.2054 -4.1010 -1.7381 3.7700 2.9889 0.5253 -3.0933 -0.6554 -3.5379 0.6384 0.4523 1.7622 -1.2621 -1.2170 -0.3584 0.4788 -0.8045 -5.7839 -0.2888
-1.5140 2.4540 2.7838 -3.0956 2.0921 0.9204 -3.8458 -5.2990 -0.9937 -2.1241 -5.8912 -2.6343 -2.0887 -6.9753 -0.4356 4.2282 1.1212 -1.9069 -3.8385 -0.2091 4.5763 3.6706 2.3356 -4.3033 3.3408 6.7660 -1.6391 2.1224 5.6068 -3.0123 -5.1585 -1.8392 3.6705 5.4486 3.6289 -3.6981 -2.2265 -4.6779 1.4598 1.4191 0.4982 -1.5683 0.9493 -1.0129 2.6176 -2.3119 -1.4395 2.1740 -2.7628 -1.9868 3.5069 2.9462 4.5327 -1.1005 -0.6665 2.0119 0.4844 2.2424 2.3461 -0.4475 -1.1324 -2.8433 0.5665 0.0869 -0.3161 0.5902 -1.5031 -4.6452 -0.7199 -1.7530 1.7167 1.4918 3.2104 5.5332 -2.2024 4.1590 2.5315 -1.9889 2.8023 3.0914 -1.5672 -1.0119 -2.1078 1.7981 0.5142 1.0670 0.6073 -4.0580 -1.3577 3.8929 4.5094 2.9025 -3.4024 -1.6835 -4.1054 0.5208 1.4084 1.2559 -0.6016 0.1108 -1.0999 1.7227 -2.3940 -5.6856 -1.1619
0.6790 1.5709 -4.7266 -0.3709 -0.5987 -5.2107 -4.4955 -6.2586 1.8443 -5.8754 -4.5399 2.9034 -5.4103 -4.3702 0.5003 2.1602 3.0487 1.2786 1.4184 -3.3123 3.8599 4.6917 3.7620 0.9655 -0.2037 4.8143 -2.2881 1.0230 6.6029 -2.4075 0.4993 -1.4697 4.8345 3.9760 5.8620 0.4350 -2.1184 -5.0230 0.8760 2.7737 0.6105 -0.9537 -1.8235 -0.3628 -0.1437 0.3305 -2.7154 1.4527 0.5960 -1.6006 2.4391 2.1166 4.5574 -2.1343 0.8151 -0.2792 -3.0884 1.3659 2.4251 -1.2690 -2.1012 -2.7263 1.1723 0.3546 -0.8312 -0.7706 -3.6880 -3.9811 2.1790 -0.0519 0.3956 -4.1236 0.9111 5.4030 -1.7808 2.4303 4.0215 0.2958 2.3674 3.4589 -1.1158 -0.8361 -2.4754 0.5168 0.5021 0.2575 -1.7102 0.8076 -2.1044 3.8344 3.7636 4.6634 0.5622 -2.6110 -3.9980 1.3358 1.6829 1.0819 -1.2589 -0.8449 -1.1048 -0.1388 -4.8342 -4.7841 1.8349
-2.1270 3.4528 2.7670 -1.8868 5.3162 1.1895 -0.9894 -5.2090 -2.2283 0.9690 -5.8822 -0.8484 -1.1737 -7.0217 -0.5811 2.1444 2.7211 -3.8998 -4.0761 -0.1388 4.4264 3.1145 -0.2970 -2.2362 3.4249 2.0997 1.5077 3.2019 4.0549 0.5769 -4.3317 0.4844 2.2443 2.4725 0.0267 -4.3878 0.7168 -3.2525 -0.0831 -0.2840 2.0814 -2.3314 -1.6648 -0.6944 -0.5680 -1.5949 -1.0759 2.8412 -3.0545 -1.4790 2.8059 3.9041 2.2562 -0.7709 -0.5777 3.2446 0.8514 1.4986 1.8310 -0.8777 -1.1861 -2.7729 1.1318 -0.5096 0.7966 0.7804 -0.9884 -4.7821 0.1577 -1.9022 3.8108 1.3171 3.9610 2.9319 0.5777 2.8723 1.9528 -2.9710 2.6193 2.4494 -1.5566 -0.8314 -1.4427 1.5820 -0.7608 1.9982 0.0099 -3.8844 -0.2728 3.0924 2.7528 0.4790 -3.2853 -0.3857 -3.5708 0.3477 0.1690 2.0160 -1.1902 -1.0828 -0.4276 0.4795 -0.5293 -5.6841 -0.8706
3.8770 -1.9971 -0.7104 1.8710 -2.0020 -2.1358 -5.9235 -4.9424 1.6064 -6.2580 -5.4938 -0.7586 -4.3736 -6.5137 0.4379 0.4329 4.5054 -1.5960 -0.1677 -0.4552 3.4996 2.4356 5.6656 0.3183 5.8082 4.4520 -2.7320 5.8339 3.0941 -1.0397 -0.5737 -2.4026 4.6107 2.1975 7.0313 -1.4904 -3.0297 -4.2338 1.7084 0.8067 2.3567 0.6195 -1.6544 -1.0167 -1.4786 -2.4007 -0.7854 1.9265 -2.3232 -1.4208 3.2944 3.8469 3.3002 -2.2485 1.9801 -0.5650 -0.1064 1.8664 2.2263 -1.4410 -3.0629 -2.4199 0.2779 -0.3575 -0.0407 0.1601 -4.4046 -4.1630 -0.1342 2.7587 -1.1485 -1.2609 5.0587 4.0061 -1.6862 1.8296 4.6717 -1.7515 2.6394 3.4465 -1.3429 -1.9253 -1.7231 0.8330 0.8228 0.2690 -0.6031 -0.9393 -1.5059 3.8629 2.1837 5.9148 -0.9889 -3.4596 -3.6607 0.7137 1.1458 1.7232 -0.3742 -1.3262 -0.9084 -0.3003 -5.2151 -5.2643 0.3103
-3.2690 4.4906 0.9593 -2.7157 3.8431 -1.3453 0.0362 -7.2618 -0.2372 1.4099 -5.7893 1.1652 -0.6239 -6.8946 2.0915 3.1329 4.2893 -0.0370 -3.3909 1.2299 2.7829 5.4557 1.9639 -1.3545 2.6712 -0.0762 -4.1281 2.9803 2.0543 -4.4199 -5.4420 0.2564 2.5678 5.5511 4.2210 -1.1135 -0.8283 -4.0280 2.4168 1.4007 1.3311 0.7352 -1.0938 -0.8783 -1.2066 -3.2056 -1.5553 1.2363 -3.4524 -1.1066 2.6590 2.8120 1.2599 -2.2310 -1.3550 3.0045 0.5667 1.1478 2.6547 -1.1568 -1.4125 -2.9866 0.4368 -1.1657 0.5841 0.5917 -0.8180 -5.1501 0.4094 -2.7400 3.3753 0.0902 2.3169 1.1484 -3.6529 3.5053 3.0238 -0.5648 2.5130 2.6277 -1.6496 -1.7166 -1.6891 0.9942 -0.8114 1.7786 -0.1372 -4.2259 0.1727 2.6466 4.9201 3.1750 -1.0624 -0.9813 -4.0476 1.2002 0.6944 1.8696 -0.1122 -1.2966 -0.6486 -0.0186 -0.0031 -6.2417 0.8776
-2.6750 4.2407 2.3402 -1.8571 4.8256 0.0919 -0.5596 -6.6965 0.3818 -0.9878 -6.4206 -2.0198 1.0344 -5.4323 -1.0542 1.5455 0.2163 -2.3469 -4.1118 0.0522 4.5430 4.1656 1.8823 -4.0718 4.0081 5.4121 -0.8194 5.4813 3.9812 -1.5087 -5.8314 -1.1679 3.6616 3.6672 -0.3172 -3.8217 0.1978 -3.7036 1.0589 1.7543 1.0480 1.0193 -1.0948 -0.6781 -0.7394 -3.2051 -1.1694 1.8146 -3.5420 -1.7495 3.1689 3.2356 3.5419 -1.9638 -0.7379 3.0511 1.3861 1.4369 2.5029 -0.7597 -1.8992 -2.8165 0.6521 -0.9447 0.6474 1.1531 -1.1905 -4.5525 -0.5718 -2.0667 3.6953 1.0698 4.2370 4.0767 -0.9642 2.2793 1.3647 -2.7465 2.6373 2.2128 -1.5286 -1.8025 -1.5772 1.4008 -0.4756 1.8517 0.4982 -4.6368 -0.9436 3.7883 3.4511 0.8558 -3.5503 -0.8655 -3.7013 0.4489 1.0227 1.7318 0.3098 -1.2509 -0.5134 0.4669 -0.4190 -5.7511 -0.7876
-3.0297 4.5553 1.1489 -2.2617 4.6948 -1.1891 0.7674 -6.2672 0.0210 2.1683 -4.4227 0.8030 0.8455 -5.7736 2.4222 2.3446 4.2687 -1.5787 -4.8627 -2.0488 4.2429 4.8515 2.5002 -3.3130 3.5760 -1.5564 -2.3336 3.0702 -0.2198 -3.9713 -6.4413 -1.0273 2.9542 4.6609 4.7098 -2.8403 0.5186 -2.4928 1.9871 1.4502 1.5279 0.5907 -1.3975 -0.8648 -0.7981 -3.6011 -1.1981 1.4901 -4.1065 -0.4569 2.7056 3.1294 0.6580 -1.8019 -1.0696 3.2546 0.4310 1.0223 1.8965 -1.6680 -1.6802 -2.6354 1.2887 -1.2705 0.8569 0.7515 -0.2842 -4.3221 0.8400 -2.4161 3.7857 0.0054 2.7681 -0.5159 -2.6793 3.1874 3.1363 -1.7269 2.3835 1.9238 -2.1815 -2.0881 -1.2605 1.4915 -0.8190 1.8855 -0.1612 -5.2755 -1.1930 3.2788 4.2727 3.5575 -2.6946 -0.3941 -3.1027 1.4417 0.6747 1.7342 -0.3377 -1.5653 -0.4290 0.3370 0.8715 -5.1586 1.0439
-0.8832 -0.6415 -5.0029 1.2409 -1.8916 -5.0119 -5.3336 -4.5193 1.5633 -5.3876 -3.3288 3.7074 -5.8626 -2.0802 1.6488 3.5949 3.4452 -2.0204 3.5005 -2.8274 2.0631 2.8376 5.9946 -1.7270 0.3627 4.4302 2.5796 -0.5569 5.0789 0.7199 2.1296 -3.9933 3.4710 3.6125 5.8041 0.4073 -3.5472 -2.7419 -0.1095 2.2308 0.6479 -0.5357 -1.1046 -0.3721 0.4534 0.7124 -3.2328 0.7083 1.2051 -2.4304 1.8943 0.9832 3.3285 0.6312 0.9110 -0.0765 -3.3951 1.1033 2.3740 -1.6025 -1.6489 -2.9980 1.1875 0.2745 -1.0952 -1.2661 -3.6428 -2.8657 2.1843 0.2245 -1.1943 -4.1417 0.6131 4.6480 1.2606 2.9762 3.8164 -0.8036 1.4860 3.5066 -0.7857 -0.6293 -2.7412 0.1963 0.3607 0.1472 -1.9996 2.2967 -3.1866 2.5693 3.1912 5.2941 -0.6216 -3.0011 -2.8778 0.9796 1.3381 1.0504 -1.2753 -0.5474 -1.2705 -0.1690 -5.0404 -3.2007 2.2421
1.0570 4.2745 1.1954 -0.2562 3.9070 3.2483 -0.4350 -4.6664 -2.1370 0.7797 -5.0228 -0.0405 -1.5683 -5.7272 -0.1881 1.4241 0.5192 -3.4803 -5.6322 -2.3148 3.6878 1.6570 3.0273 -4.5462 5.7549 3.6098 -1.7421 3.9681 4.7109 -1.1773 -4.7788 -1.5227 5.6453 3.7397 2.2709 -5.0549 -2.8126 -3.1611 -1.4335 -0.4435 1.5790 -1.4965 0.2501 -1.2789 2.3861 -2.9820 -1.2269 2.8277 -3.2966 -2.2534 3.8910 3.8280 2.3824 -1.3374 -0.5541 2.4053 1.3318 1.7684 1.2579 -0.8649 -2.6320 -2.0401 0.5597 -0.8703 0.0604 0.8641 -0.9214 -3.3749 -0.1513 0.4481 3.2298 2.0997 4.4041 3.6540 -1.9133 2.5668 1.3023 -3.1878 2.4438 2.0590 -1.8694 -2.0104 -1.8398 1.8475 0.0878 1.1394 0.8137 -4.6216 -1.9584 4.5148 2.7396 2.2371 -4.3517 -2.1821 -2.9102 -0.4099 0.4082 1.3481 -0.6438 -0.7594 -0.9933 1.7449 -0.5689 -4.6836 -0.6318
-1.4792 3.3029 -2.9490 -2.9673 1.4753 -3.6397 -3.4155 -6.6606 3.0743 -4.1487 -5.1056 4.8168 -4.9748 -4.7986 2.5256 2.6698 3.9750 -2.6178 -0.9403 -2.7233 -2.8298 3.0619 6.1677 -0.8218 3.8358 3.1707 3.0504 2.5184 4.7189 2.2862 1.3308 -2.5553 -2.6492 5.1585 5.3728 -1.2189 -2.2301 -5.0009 0.9809 1.9854 0.8163 -1.3427 -2.0290 -0.1416 1.1883 0.0646 -2.9264 0.2140 0.0641 -3.8032 -1.0178 2.9398 2.8607 0.9271 -0.9265 0.9637 -2.3556 1.0960 2.8575 -0.6800 -1.8677 -2.8224 1.6818 -0.3259 -0.2909 -0.3635 -2.6503 -4.3610 3.1386 -2.0437 1.9611 -2.5506 3.4991 3.8504 1.9207 3.2855 3.8646 -1.3475 2.2856 3.5560 -0.2464 -1.3171 -2.3346 0.4349 -0.3943 1.0304 -0.9391 0.2546 -2.9598 -2.2375 3.9529 5.1921 -1.1218 -2.2710 -4.1316 1.8458 1.0357 1.5154 -1.0033 -1.2733 -0.8141 0.4914 -3.7837 -5.2217 3.3554
3.7869 -0.8542 -1.6261 4.8331 -1.4849 0.5008 -6.1214 -4.4789 1.2345 -6.4519 -5.0271 -1.1311 -4.9765 -6.4460 0.2200 0.1824 4.2083 -0.4629 -2.5319 -1.0009 4.7690 2.1906 5.8986 0.1937 4.7216 4.0734 -4.1340 5.1345 3.6897 -2.0381 -0.4681 -0.0532 4.5516 1.7857 6.7489 -1.8795 -3.1452 -4.4287 1.5066 1.3078 1.9950 0.9917 -0.8252 -1.5016 -1.5494 -1.9280 -1.3859 1.8773 -1.1404 -1.8434 3.0840 2.9448 3.3897 -2.8074 2.5314 -0.6558 0.5540 1.7033 2.0486 -1.2943 -2.7249 -2.7036 0.0186 0.1265 -0.4857 0.2958 -4.3463 -4.2014 -0.4372 3.5299 -1.4461 -0.2602 4.2061 4.2153 -2.8801 1.1989 4.4598 -1.4137 2.2788 3.3788 -1.4411 -1.5280 -2.2050 0.6665 1.3964 -0.0717 -0.2582 -1.3167 -0.8539 4.1898 1.7564 5.8173 -1.0867 -3.3932 -3.8272 0.4673 1.4606 1.4287 -0.0863 -0.7319 -1.3703 -0.3313 -5.4461 -5.0267 -0.0033
-0.0524 -2.9472 -3.6077 1.1950 -1.3550 -5.0113 -5.7085 -1.6110 -0.2101 -3.9488 -2.1785 -1.8250 -4.6904 -3.8295 -0.1164 3.2391 3.6758 -1.6216 1.5790 0.0720 5.6050 1.4590 3.6957 1.5011 -2.3187 4.7172 -1.7427 -1.7961 2.7426 -2.4772 2.9976 -1.5553 4.8710 3.6138 3.1274 1.0549 -1.9920 -3.5540 0.5014 2.8472 0.7837 -0.4840 1.9944 -2.2794 0.9020 0.3361 -0.8901 3.0060 0.6591 -1.6341 4.2823 -0.3345 3.7745 -0.9791 0.5200 -0.7054 -2.7310 0.7744 1.6356 -1.0685 -1.4857 -1.5508 1.5416 0.3912 -1.1787 -0.3474 -3.4691 -1.7872 0.5196 0.9846 -1.8499 -3.6016 -1.2682 3.9533 -2.1515 2.1275 3.7636 -0.7625 0.9360 3.0444 -1.3692 -0.1266 -1.8562 1.9344 1.2508 -0.7134 -1.4087 1.8842 -1.0539 4.9165 2.5030 3.4639 0.6693 -2.2879 -2.4060 0.8143 1.7346 0.6558 -0.9900 0.8673 -1.7990 0.7872 -4.4149 -2.3709 -0.4013
-2.1899 5.2164 -0.6354 -3.0687 3.3554 0.7122 -0.8907 -5.7927 3.6006 1.3639 -5.9683 2.6493 0.8719 -4.1291 4.1917 2.3436 4.9514 -1.6029 -6.0528 -2.7585 0.5402 5.3535 3.1480 -1.0561 2.9519 -0.8341 -2.5556 4.7135 0.2470 -3.2278 -4.6270 -4.0253 1.7937 4.9572 5.2508 -1.8118 -1.5328 -2.8831 3.1078 0.8823 2.2712 0.1871 -0.3326 -1.0798 -1.2128 -3.2436 -1.5659 0.2303 -4.1689 -1.6864 1.4198 3.2742 1.3210 -1.7477 -1.9007 2.8965 -1.4250 1.1756 2.4794 -2.1094 -1.1427 -2.5958 0.8474 -1.3713 0.7829 -0.3081 -0.0661 -4.2223 1.9437 -1.9518 3.7901 -0.2049 3.3942 0.3961 -2.9336 3.0889 3.7874 -1.2716 2.6224 2.6302 -2.1477 -1.8209 -1.3301 0.6881 -0.9382 1.7311 -1.3069 -4.9407 -2.9590 1.2868 4.5411 4.1571 -1.4558 -0.9620 -3.1998 2.0698 0.4606 2.1849 -0.9624 -1.0880 -0.5665 -0.3929 0.2944 -5.0001 3.0997
0.7010 -3.9823 -1.3940 2.7618 -2.9013 -2.2251 -4.7924 -1.4645 -2.3394 -3.5324 0.4825 -3.1306 -2.4556 -1.7219 -3.1762 -0.8275 1.9898 -1.3901 0.6423 -0.5246 4.8894 1.2045 4.5472 -2.7533 4.3871 4.4704 -0.7335 3.9402 2.6411 -1.8152 -1.0313 -0.1160 6.3856 -0.0619 2.9484 -3.7597 -3.0165 -2.7387 -0.3833 3.3530 0.3554 0.5277 0.0807 -3.1715 1.9915 -1.9565 -0.9477 3.3943 -1.3749 -1.6773 4.5824 2.3797 3.4022 -0.2299 1.1254 -1.5957 -0.9017 1.2686 1.3064 0.1947 -2.4652 -1.0086 1.0432 0.2975 -0.9691 1.3246 -2.8944 -0.5537 -1.1028 1.7609 -2.9513 -1.0987 3.8361 3.2338 -0.5966 0.2250 2.9377 -1.3405 1.5091 2.3082 -0.8178 -1.8498 -1.7546 2.1183 1.4596 -1.0923 0.4843 -0.6031 -0.6882 5.3948 0.4271 3.4346 -2.7502 -2.8147 -1.5491 -0.1696 2.1350 0.2517 0.3974 -0.4011 -2.0585 1.7913 -3.4172 -0.8426 -2.4113
-0.2047 1.3191 4.6247 -2.0600 2.8384 4.0720 -1.0448 -6.4974 0.9976 -0.5665 -6.7742 -1.3899 1.0961 -5.6656 0.0289 3.1241 4.4637 -0.6396 -4.5154 1.7374 1.0055 4.2978 3.6620 -3.6816 2.1359 -0.0386 -4.1819 3.5986 -0.1096 -2.5766 -4.2273 0.6890 3.0040 5.4152 3.2872 -1.7343 -0.5400 -3.5968 1.4690 -0.2298 2.9561 -0.5607 -0.2324 -0.8382 -0.6471 -3.5107 -0.7818 -0.0216 -4.5993 -0.6203 1.0166 1.8606 1.4421 -2.4049 -0.3195 2.3929 2.3936 1.8706 2.1216 -0.0368 -2.0984 -2.7256 -0.0045 -1.1442 0.6957 0.8292 -0.9981 -4.6013 -0.5503 -1.1222 1.7894 3.5235 2.8371 0.7390 -3.3158 2.9961 3.5743 -1.7375 2.5813 2.1811 -1.2954 -2.2609 -1.4045 0.5686 0.0264 1.4131 1.2860 -4.4086 0.6448 1.7964 4.3738 3.4963 -2.3381 -1.1655 -3.6499 0.4153 0.5044 2.2397 0.1131 -1.0852 -0.5230 0.1778 -0.3845 -5.8564 -0.2051
3.5260 -3.1513 -1.5697 4.0532 -3.0923 0.8374 -6.1183 -3.6515 1.2109 -6.8413 -3.2545 -1.0997 -5.4648 -5.2243 -0.6115 0.4304 3.6642 -0.1009 -1.9650 -1.4852 5.0229 2.4266 5.4421 0.3814 4.3846 4.9044 -2.2342 2.9360 5.6180 -3.6968 0.3022 -1.7557 5.0429 1.5019 6.5059 -1.4126 -3.1140 -4.1277 0.8181 2.0511 1.4692 0.8490 -1.0439 -0.1765 -0.9944 -1.4001 -1.3233 2.1541 -0.9753 -2.4145 3.1106 2.7342 3.3945 -3.0090 3.1616 -1.0878 -0.2613 1.9599 1.7807 -1.4504 -2.7363 -1.9223 0.2302 0.7656 -0.9596 0.2221 -4.5570 -2.9843 -0.5522 3.1110 -2.5963 -0.2310 3.6711 4.5378 -3.3251 1.2193 4.1271 -1.1789 2.3613 3.1804 -1.5497 -1.3848 -1.8495 0.7351 1.8321 -0.4464 -0.6119 -0.7779 -1.8434 4.4778 1.7195 5.4847 -0.7744 -3.4493 -3.1013 0.2363 1.9664 1.0284 -0.2933 -0.5709 -0.9086 -0.1311 -5.7150 -3.7807 -0.2408
4.2411 0.0812 3.0508 2.5268 0.5006 4.7644 -3.0582 -6.2177 -1.6141 -4.6871 -4.7794 -2.7353 -2.2970 -4.2805 -2.9809 3.7174 1.4121 -2.9085 -3.2965 0.2933 4.3277 1.8444 2.2281 -4.7138 0.0123 4.3659 -2.3329 1.5443 5.8598 -2.7186 -2.7467 -1.1499 5.9941 2.9397 4.2252 -4.6570 -1.5820 -4.6034 0.2328 0.1188 2.2153 0.2753 -0.0102 -1.3362 -0.5202 -2.2064 -1.1230 2.3479 -1.9978 -1.6244 3.7589 2.0592 4.1890 -1.1703 2.0787 1.1032 2.4183 2.1845 1.8092 -0.6996 -2.3230 -2.4134 0.3184 0.2860 -0.2401 1.4902 -3.4790 -3.9385 -0.8740 2.7576 0.1044 3.3254 0.9913 5.0959 -1.7414 3.1630 2.7047 -2.7991 2.0560 2.7910 -1.7618 -1.4165 -1.9562 1.3543 1.5183 0.4547 1.1651 -2.7110 -0.8263 4.8139 2.6604 3.1494 -4.1459 -2.3728 -3.7264 -0.0986 1.1659 1.5760 0.2092 -0.3302 -1.1497 0.6527 -3.3514 -4.7940 -2.0273
1.4822 -3.1337 -2.7636 3.6703 -2.0051 -2.6078 -5.2215 -1.0823 -0.6233 -4.2299 1.0010 -1.4573 -3.3788 -1.1342 -2.3042 -0.9111 3.4617 -1.1184 -2.5822 -2.1091 5.1882 0.6449 2.6450 -4.2159 3.7800 5.4104 -0.1524 4.0503 3.6965 -1.4606 -1.1468 -3.1134 6.6464 -1.3133 1.9191 -3.3102 -2.7319 -2.6828 0.0650 3.2260 1.3304 0.5459 1.2392 -3.1428 0.9418 -0.3133 -1.9485 3.4813 -0.6849 -3.1720 4.2868 1.9311 4.0415 -0.4957 1.6661 -0.9793 -1.5724 1.2106 1.7017 -0.5393 -1.6867 -1.2908 1.5837 0.8943 -0.8586 0.7600 -2.9684 -0.3934 -0.0219 2.3691 -2.2770 -1.8958 3.4301 4.1078 -0.3259 0.1621 3.3616 -2.0319 1.4366 2.8846 -1.3476 -0.6635 -2.2001 2.0339 1.9740 -0.5685 -0.1508 -1.4572 -2.7914 5.5089 -0.2616 2.5348 -3.2140 -2.4918 -1.5618 0.5009 2.2258 0.9132 -0.0349 0.5866 -2.1303 1.1872 -3.9368 -0.4344 -1.0861
3.2189 -3.3548 -0.4983 4.7500 -1.4836 -0.0171 -4.4481 -1.6419 -2.1295 -4.0721 0.7734 -2.2987 -2.2278 -0.7515 -2.8358 0.8418 0.6719 -3.5661 -2.6656 -3.4688 6.4560 0.0416 3.9528 -4.3875 2.9908 4.0338 -1.0867 1.6126 5.1673 0.1500 -0.5599 -2.6021 6.3123 1.7965 2.6828 -5.0894 -2.2467 -2.6095 -0.4746 2.1036 2.1082 0.9425 1.0395 -2.2628 2.6140 -1.6678 -1.8339 3.6463 -1.7856 -3.1851 4.3122 0.6709 3.7325 -1.4216 2.3447 -1.0546 -0.4018 0.8033 1.4014 -0.8402 -2.2083 -1.2261 1.3764 0.3963 -0.7036 1.0368 -3.0168 -0.4410 -0.5626 3.3525 -2.0155 0.1817 1.8015 4.6884 -1.1099 0.4523 1.9820 -3.1826 1.1372 2.3614 -1.8762 -1.3085 -2.0106 2.1877 1.7158 -0.2328 0.6993 -1.5751 -3.0284 5.7836 0.8721 2.8822 -4.3154 -2.4768 -1.5302 0.0601 1.5827 1.2110 0.2830 0.1604 -1.6680 1.9908 -3.4260 -0.5445 -1.9388

>  <OB_ATOM_TYPES> (1dy9A1)
C.3 C.3 C.3 C.3 C.3 O.3 O.co2 O.co2 F F O.co2 O.co2 O.2 O.2 O.2 C.3 C.3 C.3 C.3 N.am N.am N.am O.3 C.3 C.3 C.3 C.3 C.3 C.3 C.2 C.2 C.2 C.2 C.2 C.3

>  <ENSEMBLE_RMSD> (1dy9A1)
1.836 1.929 1.980 2.005 2.068 2.209 2.345 2.383 2.392 2.459 2.487 2.496 2.511 2.519 2.538 2.574 2.762 2.765 2.779 2.790 2.803 2.836 2.845 2.894 2.962 2.983 3.021 3.038 3.190 3.198 3.250 3.285 3.285 3.305 3.326 3.333 3.472 3.475 3.531 3.571 3.610 3.672 3.683 3.701 3.834 3.847 3.915 4.012 4.047 4.236

$$$$
