
 OpenBabel03071213D

 23 23  0  0  0  0  0  0  0  0999 V2000
    7.7250    5.7440   30.4690 C   0  0  0  0  0
    6.2550   11.1360   37.4650 O   0  0  0  0  0
    8.6230    4.0820   37.3710 O   0  0  0  0  0
    5.8530   10.2040   35.5440 O   0  0  0  0  0
    5.4450    6.0060   36.2770 O   0  0  0  0  0
   10.3370    4.6320   35.5930 O   0  0  0  0  0
    8.5180    6.4400   31.6050 C   0  0  0  0  0
    7.6660    6.3750   32.8520 C   0  0  0  0  0
    8.5450    5.7130   33.8560 C   0  0  0  0  0
    5.4910    8.8890   37.5170 C   0  0  0  0  0
    6.5300    7.7670   37.4920 C   0  0  0  0  0
    7.6130    6.3160   36.0620 N   0  0  0  0  0
    8.7080    2.7510   35.2110 O   0  0  0  0  0
   11.6470    0.4940   33.2620 C   0  0  0  0  0
   11.3770    1.7760   32.8530 C   0  0  0  0  0
   10.9350   -0.0380   34.3270 C   0  0  0  0  0
   10.4200    2.5370   33.4950 C   0  0  0  0  0
    9.9670    0.7110   34.9780 C   0  0  0  0  0
    7.8530    5.2390   35.1210 C   0  0  0  0  0
    5.9390   10.1520   36.7810 C   0  0  0  0  0
    6.4100    6.7620   36.3520 C   0  0  0  0  0
    9.7110    2.0010   34.5560 C   0  0  0  0  0
    8.9740    4.2010   35.9270 P   0  0  0  0  0
  1  7  1  0  0  0
  2 20  1  0  0  0
  3 23  1  0  0  0
  4 20  2  0  0  0
  5 21  2  0  0  0
  6 23  2  0  0  0
  7  8  1  0  0  0
  8  9  1  0  0  0
  9 19  1  0  0  0
 10 11  1  0  0  0
 10 20  1  0  0  0
 11 21  1  0  0  0
 12 19  1  0  0  0
 12 21  1  0  0  0
 13 22  1  0  0  0
 13 23  1  0  0  0
 14 15  1  0  0  0
 14 16  2  0  0  0
 15 17  2  0  0  0
 16 18  1  0  0  0
 17 22  1  0  0  0
 18 22  2  0  0  0
 19 23  1  0  0  0
M  END
>  <MOLID> (1eapB1)
1eapB1

>  <SMILES_CANONICAL> (1eapB1)
CCCC[C@@H](P(=O)(Oc1ccccc1)O)NC(=O)CCC(=O)O	

>  <FINGERPRINT> (1eapB1)
0000000000100110000000000000000000000001000000000001011000001000001000000001000000000100000000000000000000000000000001100000000000010000000100000000000000010100000000000000000000000000000000001000001000000010010000000000000000100000000010000000000100000000000010000000000000000000100000000100000000000000000010001100000000000000001000000000001000000000010000000100000110010000000000000000010000000000100000000001001000000001000000100000000000010001000000100001000000000000000010100000000000001000000000000000100000000000000000000010000000101100000000000001000000000000000000000001000001000000010000000000000000000000000000100000011000000001000000000000000000000000000000000001110100110100000011110000000000000001010000010000000000000000000000000001000000000000000110000000000100010000000000000000000000000100001000100000000000000100000000100000000000000000000000000001000000000011010000000000000000000010000001000000000000000010001000010000011000000000000000010001000000000000000000000000000000100000100100101110101000000011

>  <MACCS166> (1eapB1)
000000000000000000000000000010000000000000000001000001000000000000000000000100000000000001110010001001010101011111111100001101110111000100111110011110110111111110111000

>  <OB_MW> (1eapB1)
343.118

>  <OB_logP> (1eapB1)
3.139

>  <OB_PSA> (1eapB1)
122.74

>  <OB_MR> (1eapB1)
85.9888

>  <OB_ATOMIC_CHARGES> (1eapB1)
8.985e-07 -0.2456394941 -0.1283999424 -0.2456394941 -0.273313821 -0.2392594255 7.32361e-05 0.0024527271 0.0354525086 0.1236539986 0.0986263757 -0.1934158106 -0.4198025451 0.0002018134 0.0031236358 0.0031236358 0.0373516255 0.0373516255 0.2125115742 0.3653651 0.2424853258 0.1468163501 0.4368801023

>  <MCT_HBD> (1eapB1)
3

>  <MCT_HBA> (1eapB1)
7

>  <ENSEMBLE_TOTAL> (1eapB1)
50

>  <ENSEMBLE_COORDS> (1eapB1)
-0.3094 -0.1193 -5.0490 -3.1125 5.4468 1.5772 0.5248 -1.2789 1.7352 -2.0475 5.8400 3.5586 -2.8798 1.5161 1.0887 2.0278 -0.0638 0.1890 0.2346 -0.2273 -3.6460 -0.8719 0.0196 -2.6489 -0.3995 0.9821 -1.5857 -2.6502 3.5936 2.9236 -1.4067 2.9493 2.3608 -0.5761 1.4244 0.7786 0.7416 -1.9643 -0.7638 3.3122 -5.2364 -0.7976 3.2133 -4.3913 0.3787 2.5793 -4.9608 -1.8911 2.3914 -3.3275 0.3744 1.6959 -3.8089 -1.8988 -0.5485 0.3777 -0.2092 -2.5452 5.0727 2.7489 -1.7423 1.8889 1.3501 1.6282 -3.0102 -0.8196 0.7407 -0.7224 0.2459
0.2121 -0.3614 -4.9892 -2.8253 5.8034 2.1231 1.9429 -0.1707 0.5500 -1.7017 5.1833 4.0118 -3.0463 1.7542 0.5990 0.0425 -1.4309 1.5100 0.6405 0.0509 -3.6030 -0.5808 0.3059 -2.7533 -0.1955 1.1138 -1.5391 -2.9505 3.5559 2.7380 -1.8051 2.6051 2.4859 -0.7594 1.3682 0.7842 0.6479 -1.9696 -0.8216 3.3879 -5.0899 -0.9251 2.6581 -4.6820 -2.1117 3.2017 -4.4450 0.2397 1.7931 -3.6538 -2.0538 2.2551 -3.3498 0.3104 -0.6300 0.4060 -0.2782 -2.4026 4.9100 3.0494 -1.9782 1.8703 1.1883 1.5966 -2.9590 -0.7965 0.4973 -0.8151 0.2816
0.0890 -0.9658 -5.1128 -3.7954 4.7032 2.2169 0.3033 -0.9081 1.5327 -2.3573 5.7499 3.6468 -2.2772 1.0961 1.6324 2.0250 0.0856 0.0570 0.5872 -0.2080 -3.9073 -0.5815 0.1941 -3.0402 -0.1280 1.1817 -1.9921 -2.1409 3.3859 3.2166 -1.1313 3.1704 2.1146 -0.5101 1.8116 0.2988 0.6764 -1.7721 -0.8913 2.9293 -5.2461 -0.4756 2.8027 -4.3153 0.6313 2.3254 -4.9868 -1.6491 2.0844 -3.1886 0.4827 1.5541 -3.7677 -1.8120 -0.4623 0.6890 -0.6030 -2.7398 4.7464 3.0645 -1.4044 1.9070 1.3458 1.4622 -2.8929 -0.7954 0.6891 -0.4695 0.0388
-1.5820 3.2168 -3.7918 -2.1697 5.2837 0.9894 2.0681 -0.4768 0.6966 -2.1171 5.4203 3.2669 -2.8775 1.2910 0.3500 0.0829 -1.6570 1.5826 -0.4683 2.4609 -3.1126 -0.9971 1.1684 -2.5430 0.0967 0.5090 -1.7381 -2.8606 3.3970 2.1874 -1.7050 2.4241 2.1259 -0.5682 1.1157 0.5131 0.8966 -2.3934 -0.6359 3.6161 -5.5373 -0.4779 2.5242 -5.5198 -1.4349 3.7441 -4.5417 0.4173 1.6411 -4.5051 -1.4310 2.7997 -3.4387 0.4139 -0.4135 0.0137 -0.4057 -2.3323 4.7931 2.2409 -1.8156 1.5589 0.9020 1.7823 -3.4280 -0.4676 0.6550 -1.1549 0.3527
-0.1010 -1.3907 -4.5001 -2.7978 5.8832 1.9365 1.9780 -0.0341 0.3421 -1.4982 5.4318 3.7562 -3.0701 1.6779 0.7671 0.2698 -1.2894 1.6215 0.2356 -0.1912 -3.6497 -0.8953 0.0803 -2.6872 -0.4078 0.9777 -1.5771 -2.8312 3.6903 2.7362 -1.6952 2.7377 2.4512 -0.7612 1.4059 0.7598 0.5969 -1.9904 -0.7223 3.5205 -4.9335 -1.0086 3.3625 -4.1682 0.2132 2.7313 -4.6844 -2.0684 2.4219 -3.2110 0.2899 1.7241 -3.6422 -1.9933 -0.6911 0.3625 -0.2268 -2.2796 5.0718 2.8893 -1.9598 1.8922 1.2379 1.5996 -2.9145 -0.8703 0.5480 -0.7617 0.3031
-0.6693 -0.2467 -5.0412 0.1135 3.9674 1.6750 0.1399 -1.0883 1.7949 -0.8057 4.8053 3.5886 -3.7530 0.9720 0.9442 1.4004 0.4020 0.2729 -0.1695 -0.2124 -3.6182 -1.3395 -0.1984 -2.6628 -1.1275 0.8619 -1.6079 -2.2216 3.9069 1.8506 -2.6670 2.5578 2.3728 -1.4635 1.3122 0.7385 0.5951 -1.7475 -0.6794 3.8174 -4.3786 -0.5445 3.4908 -3.5566 0.6064 3.0845 -4.2885 -1.6687 2.4570 -2.6993 0.5482 1.9716 -3.3587 -1.7346 -1.1923 0.2709 -0.2184 -0.9211 4.2752 2.4941 -2.7150 1.5409 1.2664 1.6890 -2.5770 -0.6781 0.2859 -0.5205 0.3013
0.4157 0.7379 -5.0341 -1.5130 5.4359 2.1288 0.4466 -1.2871 1.6614 -3.6145 5.2749 3.0067 0.1863 2.1656 2.1144 -1.1815 -1.9509 -0.0798 -0.0363 0.0739 -3.7570 0.0971 1.0412 -2.6063 -0.9968 0.7940 -1.5948 -2.7412 3.5204 1.6056 -2.1630 2.4330 2.4814 -1.3322 1.0057 0.7871 1.1425 -1.6014 -0.8365 3.2883 -5.1583 -0.5985 2.0028 -5.0283 0.0651 3.8000 -4.1251 -1.2912 1.3217 -3.8715 -0.0138 3.0726 -2.8699 -1.3608 -0.4083 0.5644 -0.2223 -2.6999 4.8180 2.3384 -0.9593 1.8755 1.7870 1.8989 -2.7409 -0.7189 -0.0264 -1.1069 0.1382
-0.8373 2.4931 -4.3947 -3.8162 4.4311 2.9814 1.2655 -1.2528 1.6821 -2.9284 5.5785 1.2214 -0.3675 3.1355 0.1723 -0.7880 -2.1139 0.6103 -1.4704 1.5438 -3.4104 -0.3979 0.8410 -2.6156 -1.0232 0.2332 -1.3860 -1.5308 4.1213 2.5349 -1.6302 2.6577 2.1745 -0.6497 0.9443 0.8971 1.2384 -2.0983 -0.7952 3.4197 -5.6205 -0.3800 2.2717 -5.3586 0.4684 3.8056 -4.7107 -1.2917 1.5893 -4.2073 0.3389 3.0797 -3.4593 -1.4222 -0.0531 0.2691 -0.2292 -2.8094 4.7958 2.1522 -0.8008 2.3133 0.9703 2.0349 -3.2043 -0.6136 0.3981 -1.3321 0.3349
-1.8604 1.2682 -5.4755 0.3787 3.4131 2.0008 -0.2781 -0.8485 1.5599 -0.9289 4.8155 3.2390 -3.2052 0.3732 1.0079 1.4335 0.3931 0.2723 -0.7525 0.7670 -4.5843 -1.3249 0.3315 -3.2589 -0.4863 0.9083 -2.1479 -1.6287 2.5439 2.8361 -2.6414 2.5892 1.7138 -1.4515 1.4999 -0.0247 0.6853 -1.7757 -0.6684 3.6507 -4.4672 0.4754 3.3063 -3.3481 1.3329 3.0166 -4.6424 -0.6981 2.3468 -2.4863 0.9545 1.9836 -3.7087 -1.1094 -0.9678 0.3995 -0.8146 -0.7236 3.7277 2.7227 -2.4828 1.3556 0.8782 1.6687 -2.6694 -0.3174 0.2617 -0.4395 0.1060
-0.0887 -1.8167 -4.4902 -3.5108 3.1872 3.4234 0.6280 -0.2982 1.5519 -2.0830 4.5619 4.5541 -2.8045 2.3998 0.0393 2.0154 0.2037 -0.4347 0.2894 -0.4664 -3.9359 -0.8326 0.0572 -3.0724 -0.3113 1.1555 -2.1801 -1.2602 3.1752 2.7682 -1.3821 3.7756 1.3865 -0.5097 2.0247 0.0492 0.4576 -1.7306 -0.6064 3.0569 -4.9648 -0.2986 3.1789 -3.8343 0.6028 2.1007 -4.9753 -1.2443 2.3335 -2.7951 0.4948 1.1970 -3.8467 -1.3735 -0.5256 0.8137 -0.7255 -2.3033 3.7491 3.6692 -1.6711 2.6607 0.4275 1.3300 -2.7887 -0.5551 0.6954 -0.2474 -0.0503
-2.6181 2.4656 -3.7936 0.5060 4.0249 1.4556 1.5427 -0.0525 0.5676 -0.8275 4.1742 3.3000 -3.6486 0.9877 0.1867 -0.1586 -1.2554 1.9026 -1.3683 1.7027 -3.4415 -1.7338 0.4499 -2.6853 -0.5918 0.1168 -1.7646 -1.7956 3.7796 1.1186 -2.6224 2.6102 1.6078 -1.3318 1.0423 0.3521 0.5782 -2.3885 -0.1588 4.2408 -4.3587 -0.2949 3.9625 -3.3894 0.7487 3.3250 -4.6053 -1.2488 2.7797 -2.7514 0.7727 2.0596 -3.8918 -1.2417 -1.0510 -0.1841 -0.3555 -0.6866 4.0110 2.0974 -2.6109 1.4737 0.6262 1.8137 -2.9751 -0.2891 0.2368 -0.9863 0.5378
0.2382 -1.1733 -4.1269 -2.8944 5.4751 1.9425 -0.0678 -2.1857 2.2007 -0.8764 5.4411 0.8797 0.2869 2.4167 0.9323 -2.1049 -2.3565 0.8331 -0.9470 -0.7847 -3.2785 -0.5032 0.1690 -2.1968 -1.4136 0.0492 -0.9992 -1.2955 3.9417 2.7186 -1.7698 2.6087 2.1905 -1.0177 0.5430 1.3464 0.0169 -2.9154 -0.2865 4.0117 -2.5652 -1.4264 3.4957 -1.8008 -0.3066 3.1938 -3.3697 -2.1289 2.2016 -1.9111 0.0372 1.7927 -3.4844 -1.7620 -0.6071 -0.2743 0.2364 -1.6387 5.0142 1.7339 -0.6959 1.8810 1.4313 1.3149 -2.7754 -0.7250 -0.7205 -1.9435 0.7544
-0.1750 1.3057 -4.5664 -2.5296 3.6676 0.1208 -0.2134 -1.7044 2.3842 -2.7914 5.0656 1.9053 1.2783 1.4682 1.7117 -2.2168 -1.9531 0.9835 -1.0049 1.1931 -3.3134 -0.3879 0.1880 -2.3719 -1.2985 0.0213 -1.1821 -0.6713 3.9844 1.5082 -0.6027 2.7750 2.4131 -0.8662 0.8752 1.0268 -0.1351 -2.9145 0.0928 3.8216 -3.1214 -1.1834 3.4626 -2.3456 -0.0106 2.8690 -3.7518 -1.8941 2.1776 -2.2723 0.3765 1.4778 -3.6622 -1.4853 -0.5049 -0.1570 0.0885 -2.1054 4.3075 1.2368 0.0669 1.6538 1.6761 1.1463 -2.9328 -0.4060 -0.7968 -1.6905 0.8890
-1.0971 0.2571 -4.7255 -1.8993 5.0376 3.2931 0.1958 -1.4202 2.4632 0.1331 5.1904 2.2685 -0.5385 2.3186 -0.5688 -1.7620 -2.4926 1.4373 -1.8809 -0.2085 -3.5252 -0.9380 -0.7409 -2.4749 -1.6666 -0.8474 -1.1585 -1.7330 4.2058 1.1065 -1.8743 2.7304 1.4000 -1.2456 0.5534 0.7721 0.4193 -3.0386 0.4522 4.1412 -2.4876 -1.3301 3.6856 -1.5966 -0.2786 3.3469 -3.4828 -1.7641 2.4742 -1.7786 0.2749 2.0317 -3.6717 -1.1765 -0.7298 -0.5410 -0.0138 -1.0417 4.8562 2.2609 -1.1326 1.8798 0.4093 1.6054 -2.8367 -0.2130 -0.4937 -1.8862 1.0909
0.6236 0.8365 -5.2188 -4.0557 3.6540 2.8628 1.3567 -0.3586 1.5392 -3.6721 1.6087 1.9277 1.1287 3.1578 1.4955 -0.8637 -1.0018 0.6678 0.2573 0.3375 -3.8439 0.3004 1.4814 -2.8616 -0.6273 1.1917 -1.7097 -1.8882 2.7813 3.0551 -1.1301 3.6748 2.0959 -0.6140 1.9313 0.5680 1.0627 -1.3824 -0.8374 2.2041 -5.3676 -0.4701 2.6860 -4.5357 -1.5587 1.3682 -4.8567 0.4512 2.3080 -3.2471 -1.6426 0.9486 -3.4711 0.3548 0.1375 1.1859 -0.4089 -3.2804 2.5920 2.5385 -0.0640 2.8991 1.3768 1.4187 -2.6934 -0.6383 0.3950 -0.4175 0.2564
0.3062 -0.2369 -4.8248 -0.0406 5.1437 1.8406 -0.4319 -1.6662 2.1673 -2.2203 5.7112 2.2082 0.2379 1.6930 1.3361 -2.1889 -2.5306 0.6858 -0.7166 -0.8228 -3.8838 -0.9261 0.1178 -2.7230 -1.6488 -0.5974 -1.6108 -1.4388 3.4820 2.7090 -1.9738 2.6280 1.5823 -1.6150 0.5585 0.5062 0.1297 -2.9850 0.0033 4.1153 -2.2080 -0.9145 3.4599 -1.5248 0.1849 3.4280 -3.0798 -1.6747 2.1693 -1.7807 0.4555 2.0260 -3.3440 -1.3945 -0.9278 -0.4287 -0.2922 -1.3144 4.8921 2.2270 -0.9691 1.5967 1.1460 1.4198 -2.7030 -0.3801 -0.8799 -1.9151 0.6461
-0.8741 -0.2223 -5.1205 -1.9885 5.3180 2.7779 0.0012 -1.0572 2.3487 -0.0712 4.3043 3.4838 0.0437 2.4583 -0.7690 -1.9778 -2.0428 1.2816 -1.6165 -0.1144 -3.8135 -0.7776 -0.6742 -2.6916 -1.5884 -0.6356 -1.4212 -1.6855 3.0632 2.2012 -1.6762 3.2296 0.6979 -1.2195 0.8982 0.4039 0.1996 -2.8263 0.4633 4.0655 -2.7035 -1.0786 3.6119 -1.6968 -0.1366 3.2259 -3.6706 -1.4902 2.3553 -1.7412 0.3380 1.8626 -3.7119 -0.9883 -0.7166 -0.2915 -0.2388 -1.1290 4.2761 2.8724 -0.8365 2.1715 0.0372 1.4399 -2.7687 -0.1283 -0.6483 -1.5623 0.9708
-1.6879 2.4200 -5.2017 -0.6521 3.9208 3.6140 1.7830 0.2399 0.3261 -0.8458 1.6460 3.5828 -3.1991 1.6816 -0.2500 -0.1778 -0.7502 1.4659 -0.6848 2.0587 -4.1363 -1.2627 1.0045 -3.2248 -0.1823 0.5325 -2.2836 -2.4258 3.0101 2.3818 -1.9826 3.3448 0.9762 -0.8730 1.6611 -0.2556 0.6781 -1.9752 -0.5066 3.4899 -4.8917 0.4263 2.4171 -5.1417 -0.5200 3.5695 -3.7081 1.0593 1.5028 -4.1875 -0.7695 2.5917 -2.6721 0.7812 -0.6995 0.3709 -0.8736 -1.2289 2.7542 3.2391 -2.1161 2.1322 0.1062 1.5933 -2.9073 -0.0903 0.3929 -0.5434 0.1530
-1.5544 1.5301 -5.1911 -3.2457 2.9493 3.7721 -0.4245 -1.1728 1.0720 -1.7042 1.3049 3.4181 -0.6087 3.7314 -0.8922 1.7101 0.0680 1.2265 -1.4302 1.7636 -3.7076 -0.3766 0.8518 -3.1308 -0.8396 0.3756 -1.7789 -1.4071 3.4836 2.4217 -2.0094 3.4894 1.0328 -0.6760 1.6971 0.2315 1.4867 -1.4871 -0.6812 2.6271 -5.3916 0.1808 2.5344 -4.9127 -1.1874 2.3273 -4.5738 1.2053 2.1382 -3.6512 -1.4359 1.9288 -3.2050 0.9407 0.0784 0.8872 -0.6935 -2.1076 2.4443 3.2393 -1.0077 3.0154 0.0197 1.8137 -2.7720 -0.3284 0.7469 -0.4258 0.2665
-2.7023 1.4875 -5.1594 -2.8155 3.9782 3.1194 -1.0357 -1.9511 0.9255 -0.8567 4.3280 4.2393 -2.3342 2.2766 0.1612 -0.7290 -2.5765 -1.4467 -1.5364 0.7615 -4.5384 -1.3128 1.2875 -3.1437 -0.3879 0.3610 -2.3999 -0.8504 3.9943 1.8526 -0.4705 2.5443 1.6674 -0.4293 0.9658 -0.0722 1.2180 -1.5177 -0.3412 3.9886 -4.3590 0.8780 4.3082 -2.9430 0.8545 2.7648 -4.7824 0.5131 3.3729 -2.0506 0.4839 1.7589 -3.8216 0.0946 -0.9396 0.0173 -1.0339 -1.4717 4.1237 3.2039 -1.2082 1.9411 0.5086 2.0449 -2.5069 0.1149 -0.3763 -1.5582 -0.4816
-0.7722 1.7981 -5.6311 -3.7145 4.4446 3.0496 0.6310 -0.6925 1.4920 -2.3773 3.0558 4.2699 0.5435 2.7483 0.8992 -1.0039 -1.7350 -0.0450 -1.2345 1.6667 -4.2025 -0.0763 1.2906 -3.3103 -0.5696 0.2880 -2.3006 -1.5523 4.0496 2.2356 -1.8295 3.1704 1.0384 -0.9677 1.3324 -0.1590 1.3621 -1.8117 -0.7549 2.9669 -5.4595 0.4602 1.7566 -4.9477 1.0775 3.5830 -4.7534 -0.5046 1.2501 -3.7649 0.6864 3.0419 -3.4722 -0.9213 -0.0211 0.5484 -0.9160 -2.5671 3.7684 3.2959 -0.6005 2.4199 0.6071 1.9346 -2.9877 -0.3326 0.2166 -0.9567 -0.0337
-0.6680 1.9889 -5.5649 -2.5579 4.0495 4.1032 0.2882 -1.6565 -2.4198 -1.4395 5.0354 2.3733 0.7110 1.8631 1.2306 -1.1789 -1.9840 -0.4638 -0.7531 1.0181 -4.4136 -0.9479 1.7749 -3.1230 -1.5892 0.8769 -2.0932 -2.3591 2.8244 2.1223 -1.3346 1.7649 2.4628 -1.1606 0.8543 0.2801 1.1698 -1.3174 0.0053 3.2113 -4.8551 0.8374 2.3765 -4.7452 -0.3449 3.3255 -3.8143 1.6819 1.7127 -3.6030 -0.5923 2.6013 -2.5821 1.4183 -0.5969 0.5380 -1.0071 -2.0411 4.0863 2.8522 -0.4658 1.5200 1.2657 1.8021 -2.4926 0.3403 -0.1058 -1.1443 -0.9510
1.7326 -1.2629 -4.5591 -2.7961 3.6463 4.2444 1.9890 -0.0847 1.6021 -4.3707 2.4856 3.0712 -2.2374 1.3513 0.3126 3.0715 0.9552 -0.3445 1.5264 0.1016 -3.9506 0.3754 0.0564 -2.9756 0.4775 1.2183 -2.0177 -2.6306 3.6715 1.9009 -1.2928 2.9733 1.8262 0.0469 1.8050 0.2834 2.2733 -1.3464 -0.6505 -0.1077 -4.7344 -0.1573 -0.5948 -3.4277 0.2431 1.1081 -4.8589 -0.7191 0.1775 -2.3429 0.0637 1.9464 -3.6870 -0.9074 0.4537 0.7350 -0.5883 -3.3681 3.1833 3.1073 -1.2536 1.9565 0.7222 1.5042 -2.4800 -0.5137 1.9695 0.0853 0.0066
-0.3048 1.8934 -5.7112 -2.8886 3.8024 4.0820 -1.0080 -1.9829 -1.0561 -1.3248 4.7539 2.7156 0.7111 1.7299 1.4039 0.8165 -1.1442 -2.4922 -1.0402 1.2095 -4.5870 -0.6536 1.8370 -3.2715 -1.3780 1.1302 -2.1526 -2.3879 2.6864 2.0900 -1.4447 1.5536 2.4229 -1.0533 0.8005 0.2072 1.2959 -1.2096 -0.0745 2.7559 -4.9123 1.1534 2.0460 -4.7813 -0.1070 2.9343 -3.8390 1.9441 1.5736 -3.5817 -0.4878 2.4063 -2.5464 1.5410 -0.4040 0.7142 -1.0765 -2.1104 3.8551 2.9746 -0.4635 1.3920 1.3011 1.7282 -2.4313 0.3849 0.1939 -0.9293 -1.2045
-0.5050 1.2033 -4.7462 -3.1348 4.1666 1.6068 3.4021 -0.7566 -0.9595 -3.3885 3.3647 3.7280 -1.9044 0.5487 -0.3419 3.0785 0.7205 0.9742 0.2635 2.0444 -3.7599 1.2746 1.1867 -3.0431 1.4323 1.6928 -1.6328 -3.0566 1.8456 1.8814 -1.6006 1.4413 1.8809 0.2044 1.2146 0.3834 1.8568 -1.4154 1.0285 -0.1615 -4.7827 -0.3743 -0.0310 -3.6023 -1.2080 0.3622 -4.7958 0.8647 0.6193 -2.5226 -0.7419 1.0705 -3.6311 1.3671 1.0100 0.6247 -0.6576 -3.1998 3.1822 2.5350 -1.1540 1.0098 0.5103 1.2082 -2.5456 0.5866 2.3538 -0.1941 0.1183
-0.6544 3.1010 -4.5769 -3.3347 3.2280 3.2828 3.3477 -0.8865 -1.1260 -3.5930 3.6367 1.0520 -1.8584 -0.0647 -0.2139 3.0652 0.7354 0.6955 -0.4124 2.8393 -3.1115 0.1115 1.4365 -2.9264 1.2157 1.4411 -1.8965 -1.5552 2.6538 1.8770 -1.6149 1.1424 1.8364 0.1398 1.0339 0.2281 1.9274 -1.4206 0.9914 0.0053 -5.0125 0.1084 0.1196 -3.9733 -0.8987 0.5483 -4.8342 1.3259 0.7629 -2.8276 -0.6127 1.2432 -3.5972 1.6357 0.9275 0.4315 -0.8150 -2.9350 3.2111 1.9893 -1.1494 0.6357 0.5018 1.3586 -2.6392 0.6996 2.3345 -0.2704 -0.0462
-0.4396 1.3943 -5.2882 -3.3521 2.7735 3.6849 3.2324 -0.5590 -1.3598 -3.1923 4.0440 1.7986 -2.0503 0.1253 -0.3224 3.0177 0.9933 0.5295 0.5245 1.8182 -4.2092 -0.1150 1.6201 -2.8587 0.9341 1.7040 -1.7784 -1.5072 2.3964 2.2842 -1.8063 0.9625 1.9036 -0.0012 0.9928 0.3378 2.0967 -1.2631 0.8613 -0.1017 -4.7341 0.1780 0.4931 -4.0064 -0.9293 0.0343 -4.2794 1.4368 1.1876 -2.8793 -0.6938 0.7730 -3.0540 1.6898 0.7733 0.5645 -0.7988 -2.7723 3.1535 2.5223 -1.3225 0.6495 0.5154 1.3033 -2.3684 0.6621 2.2905 -0.0481 -0.1655
-0.6578 0.7390 -5.0693 -0.7607 3.1038 2.7607 3.1558 -0.0288 -0.6976 -2.6368 2.7044 3.9967 -2.3601 0.0233 -0.8609 2.2128 1.4353 1.0339 -0.2002 1.7777 -4.0781 0.8872 1.2023 -3.2059 0.7747 1.8088 -1.8304 -2.6848 2.4379 1.5976 -2.5826 0.9503 1.3353 -0.5682 1.1720 0.0720 1.5435 -0.9296 1.1404 0.5975 -4.7687 -0.1855 0.5610 -3.6449 -1.1023 0.9260 -4.5780 1.1048 0.8616 -2.4116 -0.6609 1.2566 -3.2463 1.5814 0.4794 0.7322 -0.8172 -2.0569 2.7436 2.9220 -1.8502 0.6676 0.0508 1.2422 -2.2081 0.7276 1.8601 0.3178 0.1850
-1.9399 3.1724 -3.4165 -3.8988 2.4559 2.3342 -0.1468 -1.2961 1.3215 -3.0986 1.2385 0.5790 0.7934 3.8225 0.2966 2.1875 -0.5341 1.6861 -1.7496 2.0687 -2.4121 -0.2822 1.8480 -2.1436 -0.1859 0.6828 -1.1984 -2.3419 3.5030 0.9305 -1.0793 3.5236 1.7630 0.1963 1.6886 0.9942 1.7279 -1.6025 -0.4930 1.9388 -5.7476 -0.5185 1.6439 -5.0349 0.7110 2.0999 -5.0730 -1.6709 1.5526 -3.6948 0.7015 1.9827 -3.6268 -1.6852 0.7864 0.9050 -0.0608 -3.1247 2.2661 1.2398 0.0709 3.0570 0.9234 1.6974 -2.9703 -0.5479 1.1701 -0.6518 0.6660
-0.5869 0.6125 -5.1349 -0.6169 2.8214 2.8684 3.1169 0.0332 -0.7195 -2.5517 2.5848 4.0546 -2.3991 0.0160 -0.8810 2.1542 1.5189 0.9828 -0.2008 1.6945 -4.1596 0.8840 1.1871 -3.2430 0.7096 1.8233 -1.8875 -2.5854 2.4577 1.6450 -2.6400 0.9858 1.2937 -0.6205 1.2011 0.0272 1.5127 -0.8508 1.1338 0.6086 -4.7240 -0.1208 0.5591 -3.6177 -1.0576 0.9352 -4.5060 1.1656 0.8457 -2.3733 -0.6391 1.2507 -3.1624 1.6180 0.4309 0.7601 -0.8558 -1.9498 2.6119 2.9917 -1.8972 0.6845 0.0180 1.2244 -2.1400 0.7452 1.8160 0.3814 0.1546
0.5554 1.7433 -5.7249 -2.5597 3.6898 3.7467 2.8405 -0.8008 -1.9177 -3.5892 3.4824 1.7225 -1.9943 0.1513 0.3909 3.1023 0.9123 -0.1819 0.0641 2.0956 -4.3429 0.3832 0.9797 -3.3755 0.5712 1.5626 -1.9962 -2.5531 1.5653 2.7549 -1.1332 1.4168 2.2621 0.1388 1.0763 0.3147 2.2060 -1.2595 0.5498 -0.2802 -4.5935 0.6899 0.1592 -4.0512 -0.5830 0.0961 -4.0080 1.8413 0.9560 -2.9691 -0.6109 0.9429 -2.8275 1.8130 0.5968 0.4953 -0.9266 -2.9568 3.0012 2.6503 -1.0823 0.7983 0.8915 1.3334 -2.3179 0.6320 2.2030 -0.1424 -0.6000
-1.2440 4.1831 -3.0660 -3.1420 1.5197 -0.3838 2.3264 -0.4603 1.6684 -4.7771 2.1268 1.0850 0.6271 2.4697 2.3869 3.0504 -0.5512 -0.6962 -0.6412 2.8036 -3.0047 0.5154 2.7929 -2.0356 0.8117 1.3635 -1.6637 -2.4980 2.8141 1.4660 -1.6691 1.8025 2.2266 -0.0857 1.2057 0.5697 0.8065 -1.5021 -0.1769 1.1974 -5.6304 -0.0493 2.0844 -4.7815 0.7256 0.2846 -5.0819 -0.8706 1.9854 -3.4439 0.6338 0.1789 -3.6376 -0.9718 1.1407 1.2104 -0.1951 -3.6047 2.1161 0.7408 -0.2471 1.8889 1.7535 1.0191 -2.8530 -0.2745 1.8809 -0.3554 0.1317
-0.4854 4.5130 -2.6702 -2.9181 1.7494 -0.7089 3.2205 -0.7135 -0.1856 -4.7919 2.1003 0.5431 0.3115 2.3632 2.6668 1.8878 -0.7049 1.8979 -0.0930 3.0581 -2.6656 1.0527 2.8484 -1.7068 1.1315 1.3859 -1.3599 -2.6403 2.8096 1.3655 -1.9313 1.7173 2.1358 -0.1301 1.2205 0.6856 0.7372 -1.5257 -0.1374 1.0294 -5.6377 -0.6066 0.0954 -4.8482 -1.3896 1.8364 -5.0409 0.2889 0.0455 -3.5136 -1.2316 1.7680 -3.6043 0.4785 1.2059 1.1594 0.1359 -3.5829 2.1832 0.3886 -0.4571 1.8259 1.8778 0.9296 -2.8722 -0.2769 1.7785 -0.4731 0.4746
-2.2653 2.9869 -5.0065 -2.8426 2.8821 3.4160 -1.2731 -1.5892 -0.0053 -2.1660 0.8406 2.6551 1.0927 3.1483 -0.3496 0.1328 -1.8307 -2.0213 -1.7611 1.7631 -4.2848 -1.4355 2.1218 -2.8579 -1.5451 0.8932 -1.9916 -0.6569 2.7249 2.5804 -0.7166 3.3650 1.2091 -0.3088 1.3408 0.0345 1.3008 -1.2301 0.0821 3.0069 -4.8215 1.3073 3.6981 -3.5551 1.4786 1.7730 -4.8513 0.7739 3.1151 -2.4073 1.0872 1.1384 -3.6143 0.3639 -0.2591 0.6577 -1.2329 -1.9514 2.0256 2.8626 0.1427 2.6252 0.2230 1.7897 -2.4440 0.4994 -0.0087 -1.0319 -0.8233
-0.4141 1.1456 -5.7713 -3.7077 1.6749 3.3996 2.3958 -0.1562 -1.5113 -2.6069 0.0475 2.2402 0.5187 3.7811 0.8182 2.0029 0.5986 0.8075 -0.1157 0.6024 -4.3973 -0.3662 1.6713 -3.3632 -0.7004 1.0159 -2.0505 -1.4231 2.0131 2.9896 -1.4805 3.1228 1.9611 -0.5876 1.8417 0.1767 0.4197 -1.0880 -0.0590 1.6275 -4.9878 0.6893 2.5338 -3.8778 0.9235 0.4014 -4.7643 0.1838 2.1463 -2.6220 0.6397 -0.0135 -3.4101 -0.1333 0.2311 1.4841 -0.9561 -2.6168 1.1268 2.8133 -0.3868 2.9642 0.9446 0.8402 -2.3880 0.0500 1.3019 0.2044 -0.3955
-1.0968 1.2295 -6.2124 -2.1953 3.0021 4.4692 -0.9759 -1.8782 -1.0223 0.0207 2.5241 4.2236 -0.7010 3.3950 -0.1069 0.8892 -1.1864 -2.4858 -1.2132 0.5216 -4.8861 -0.8796 1.4731 -3.7636 -1.5042 0.9733 -2.4843 -1.5871 1.5616 2.7125 -2.0939 2.4175 1.5728 -1.0392 1.0997 -0.1181 1.2524 -0.8858 -0.0644 2.8588 -4.3012 1.6897 2.3183 -4.3481 0.3432 2.8176 -3.1564 2.3947 1.7823 -3.2429 -0.2035 2.2249 -1.9657 1.8104 -0.4578 0.8089 -1.4077 -1.1401 2.4158 3.8557 -1.1791 2.3741 0.3802 1.6995 -2.0180 0.5738 0.1995 -0.8137 -1.2708
-0.3353 2.6865 -5.6517 -1.5056 1.7869 4.0761 2.6494 -0.5105 -1.3515 -3.7577 1.9284 3.7322 0.0986 3.4547 0.4169 1.9420 0.5227 0.7776 -0.7088 1.5450 -4.7423 0.4309 1.2589 -3.7980 -0.1156 0.5389 -2.5960 -2.2734 1.3948 1.9063 -2.0509 2.6537 1.0973 -0.6975 1.4634 -0.4723 0.5098 -1.3023 -0.0818 1.5601 -5.0783 1.2718 0.2836 -4.8280 0.6269 2.4460 -4.0789 1.4324 -0.0103 -3.5972 0.1731 2.1205 -2.7430 0.9678 0.4277 1.1365 -1.3191 -2.6244 1.7487 3.3137 -0.7552 2.5773 0.3345 0.9535 -2.5259 0.3343 1.4124 -0.0324 -0.4480
-0.6962 0.4172 -6.1807 -1.5517 2.1081 4.7804 0.8143 -1.1108 -2.3580 -2.3542 0.3807 3.5217 -2.6000 2.1749 0.2240 2.0886 0.5228 -1.0174 0.0133 0.9638 -4.9682 -0.9778 1.2091 -3.8573 -0.2836 1.9424 -2.7365 -0.5093 1.7051 2.7183 -0.9720 2.8480 1.8427 -0.3483 2.1173 -0.3379 0.4346 -0.8427 0.2134 2.1711 -4.3894 1.5586 2.7374 -3.6750 0.4296 1.0803 -3.9083 2.1812 2.1754 -2.5283 0.0086 0.4608 -2.6795 1.7160 -0.4243 1.1883 -1.4388 -1.5884 1.3199 3.6792 -1.4158 2.3243 0.5077 0.9756 -2.0274 0.6585 0.7703 -0.0606 -1.1451
0.4759 1.9495 -5.7595 -3.1807 2.5144 3.4340 -1.1652 -1.0045 -0.9987 -3.2851 0.8358 1.8940 1.6766 2.0554 1.3127 0.7941 -0.7973 -2.4840 -0.5100 1.9247 -4.6194 0.1518 2.4422 -3.3663 -0.6599 2.0208 -2.1685 -1.1960 1.3326 2.9939 -0.4023 2.4873 2.4206 -0.3229 1.7128 0.1777 1.2894 -0.9415 -0.0761 1.4110 -4.8174 1.4438 0.8307 -4.5538 0.1397 1.8963 -3.8041 2.1836 0.7884 -3.2966 -0.3344 1.8291 -2.4421 1.6822 0.2178 1.3843 -1.1186 -2.6508 1.5171 2.6860 0.4511 2.0449 1.2662 1.2656 -2.1962 0.4863 0.2950 -0.3684 -1.1952
-0.9282 4.2547 -2.9585 -2.7854 0.1672 0.2032 3.2889 -0.6070 -0.3347 -4.4149 0.9161 1.6121 0.2384 3.7986 1.1081 2.0731 -0.4421 1.8127 -0.4294 2.8334 -2.9325 0.7811 2.7297 -2.0373 0.8390 1.3314 -1.4808 -2.7276 2.4338 0.7966 -1.6718 2.5683 1.8709 0.1628 1.4906 0.8434 0.8029 -1.3967 -0.0912 0.8771 -5.5446 -0.1521 0.0000 -4.7878 -1.0277 1.7182 -4.9049 0.6803 0.0369 -3.4434 -1.0157 1.7390 -3.4538 0.7141 1.2933 1.2963 -0.0360 -3.4112 1.1123 0.9451 -0.3258 2.7170 1.2252 0.9578 -2.7554 -0.1289 1.8858 -0.3140 0.3838
0.8631 -0.1221 -5.5669 -1.0860 2.4490 4.4296 2.1904 0.2854 -1.9872 0.4595 1.9387 2.8305 -2.8764 -0.2522 0.0812 1.5939 2.1720 -0.5333 0.3432 0.9542 -4.6498 -0.6486 0.3598 -3.6813 -0.8371 1.3178 -2.5345 -1.6692 0.7996 2.8743 -2.5127 1.4072 1.7769 -1.1825 1.3144 -0.1711 1.5870 -0.0645 0.5118 0.7033 -4.1124 0.9683 0.8288 -3.5270 -0.3531 0.8473 -3.3448 2.0637 1.1060 -2.2186 -0.4800 1.1303 -1.9254 1.9278 -0.4544 0.6692 -1.2306 -0.6440 1.7884 3.3327 -2.2206 0.7001 0.4876 1.2392 -1.3833 0.7023 1.2395 0.7945 -0.7990
-1.8998 1.7998 -6.0961 -0.0695 2.4518 4.0749 0.7898 -1.3953 -2.2498 0.6053 0.5967 2.9361 -3.2472 1.4183 -0.0336 1.8274 0.5166 -1.0827 -1.9890 2.0107 -4.6065 -1.1097 1.0120 -3.8969 -0.5637 1.6520 -2.6486 -1.6805 1.3483 2.7716 -1.9130 2.3929 1.7032 -0.9399 1.5847 -0.2889 0.4495 -0.9909 0.3098 2.8411 -4.0074 1.8951 3.3265 -3.1802 0.8067 1.6118 -3.8051 2.4016 2.5456 -2.2092 0.3014 0.7591 -2.7718 1.8430 -0.7658 0.7532 -1.4544 -0.2588 1.4069 3.2348 -2.1341 1.7203 0.3811 1.1977 -2.0284 0.8118 0.6174 -0.2759 -1.1136
-0.0009 0.4569 -6.0049 0.0199 1.8258 2.8666 2.8507 0.3754 -1.1239 -1.6720 1.9480 4.3893 -2.5344 -0.2241 -0.5875 1.9048 2.1152 0.3201 -0.2767 1.3049 -4.7906 0.5535 0.8213 -3.6289 0.2669 1.6984 -2.4383 -1.8861 0.5221 2.4574 -2.5648 1.2381 1.3121 -0.9138 1.4288 -0.3723 1.4902 -0.2188 0.9999 0.3460 -4.2104 0.6886 0.9107 -3.5124 -0.4514 0.1629 -3.5642 1.8542 1.2648 -2.2212 -0.3368 0.5331 -2.1645 1.9755 0.1316 0.8680 -1.1886 -1.2079 1.5152 3.3454 -2.0145 0.7026 0.0239 1.0420 -1.5159 0.9138 1.5940 0.8108 -0.2238
-1.6187 2.0816 -6.1279 0.7214 1.1226 2.5935 1.8879 0.6539 -0.6427 -0.3914 1.9056 4.4246 -3.3111 1.2543 -0.2189 1.0678 -1.0374 -2.2458 -1.7787 2.2036 -4.6348 -0.9578 1.1421 -3.9493 -0.4295 1.7042 -2.6570 -1.6164 0.9620 2.5741 -2.1037 2.0797 1.6798 -1.0081 1.5502 -0.3471 0.2640 -1.2613 0.0866 2.8449 -3.8473 2.0969 3.3651 -2.8865 1.1417 1.5246 -3.9024 2.3476 2.5243 -2.0584 0.4982 0.6159 -3.0064 1.6538 -0.7197 0.7604 -1.5180 -0.3928 1.4071 3.3090 -2.2331 1.5585 0.2792 1.0962 -2.1277 0.7569 0.6489 -0.2583 -1.1005
-2.2969 3.7424 -4.0846 -0.4958 2.6272 3.7673 -0.5750 -2.0697 -1.2591 -2.7549 2.3774 3.9789 -0.2158 3.1503 -0.4496 1.5266 -1.5552 -2.4402 -1.9676 2.2754 -4.1821 -0.5886 2.0223 -3.6252 -0.5514 0.6220 -3.0719 -1.5846 1.3856 2.1157 -1.9505 2.2419 0.9242 -0.7983 0.9103 -0.6809 1.5335 -1.1354 -0.0125 2.4123 -4.5310 2.2373 2.0887 -4.6452 0.8272 2.3999 -3.3274 2.8375 1.7921 -3.5428 0.1159 2.0575 -2.1388 2.0750 0.1360 0.5598 -1.7262 -1.7134 2.1857 3.3705 -0.8746 2.1682 -0.1228 1.7388 -2.2473 0.7736 0.6820 -1.0760 -1.3682
-0.8305 4.0928 -4.9822 -3.0930 2.5344 3.0728 -1.0546 -1.3092 -0.9400 -3.1465 0.5559 1.9416 1.7252 2.0582 0.9926 0.8391 -1.2296 -2.5178 -0.8812 2.6311 -4.6165 0.0779 2.3457 -3.4857 -0.6455 1.5374 -2.4403 -1.0521 1.3971 2.7930 -0.3742 2.5262 2.0463 -0.2573 1.5034 -0.0874 1.4397 -1.1477 -0.1315 1.4768 -4.7615 1.9415 0.8274 -4.6605 0.6474 2.0569 -3.6802 2.4915 0.8196 -3.4869 -0.0090 2.0214 -2.4043 1.7971 0.2874 1.0667 -1.3505 -2.5272 1.4292 2.5311 0.5016 1.9941 0.9495 1.3971 -2.3055 0.6102 0.3918 -0.6870 -1.2535
0.4776 -0.3703 -6.0569 -2.8549 1.0296 3.6410 2.5852 -0.8584 -2.1201 -2.2712 3.0100 4.6114 -2.0611 0.8131 0.2167 2.9433 1.1984 -0.8290 0.2615 0.7619 -5.0852 -0.1000 0.2176 -3.7242 0.2230 1.2614 -2.6842 -2.2771 2.7904 2.2088 -0.9263 2.3326 1.7086 0.0498 1.6174 -0.3162 2.0589 -0.7403 0.4171 -0.2833 -4.0483 1.3476 0.0941 -3.0800 2.3631 0.1206 -3.8872 0.0751 0.8425 -2.0113 2.0338 0.9476 -2.7499 -0.2773 0.3991 0.6449 -1.3213 -2.4468 2.3209 3.6178 -1.0751 1.4958 0.4697 1.2721 -1.8396 0.6592 2.0206 0.0912 -0.9556
-0.6532 2.0797 -5.9555 -2.9003 1.1917 3.6804 -1.1517 -1.2278 -0.9164 -1.4239 -0.3191 2.8210 0.2488 3.7973 0.2809 0.8010 -0.9278 -2.4016 -0.9040 1.3513 -4.6594 -0.3455 2.1502 -3.5077 -1.0344 1.7336 -2.2325 -0.7947 2.0026 3.0169 -1.2726 2.9286 1.9180 -0.4986 1.6048 0.1136 1.2597 -0.8239 0.0231 2.0738 -4.5964 1.5777 1.5124 -4.4518 0.2470 2.3080 -3.5090 2.3341 1.2330 -3.2280 -0.2335 1.9926 -2.1872 1.8215 -0.0230 1.2795 -1.2076 -1.7157 0.8256 3.1351 -0.3944 2.8415 0.7018 1.4463 -2.0571 0.5992 0.2364 -0.4583 -1.1562
-1.5896 3.4596 -5.3501 -2.6573 1.2978 3.6539 -1.0064 -1.5264 -0.8176 -1.0780 -0.2512 3.0953 0.0769 3.6166 -0.2385 0.8005 -1.3674 -2.4927 -1.5413 2.0786 -4.7476 -0.4860 2.0151 -3.6699 -1.0396 1.2263 -2.5106 -0.6509 2.0920 2.7181 -1.2981 2.7776 1.5346 -0.4721 1.3614 -0.1732 1.4754 -0.9939 -0.1485 2.0707 -4.3905 2.1829 1.3488 -4.4754 0.9261 2.5355 -3.2048 2.6170 1.1586 -3.3684 0.1878 2.3035 -2.0037 1.8329 0.0176 0.9475 -1.4680 -1.4621 0.9080 3.1487 -0.4593 2.6520 0.2953 1.6128 -2.0802 0.6821 0.3404 -0.7708 -1.2580
-1.1336 2.1951 -5.5987 -2.7041 1.9932 3.7085 3.0125 -1.1914 -1.6431 -2.4316 -0.0559 2.7395 -1.9108 0.7870 -0.5927 3.2287 0.9528 -0.4765 -0.4804 2.3621 -4.2498 -0.2710 1.0091 -3.6144 1.0226 1.0235 -2.8358 -0.8461 1.7085 2.3125 -1.2133 2.4075 1.0239 0.2936 1.5176 -0.5849 2.0284 -0.8185 0.7313 -0.6742 -3.8096 1.7571 -0.2073 -2.8400 2.7320 -0.2259 -3.7618 0.4895 0.6534 -1.8736 2.3625 0.7177 -2.7312 0.0934 0.8236 0.4856 -1.4396 -2.0690 1.0975 2.9161 -1.0041 1.4686 -0.1264 1.1056 -1.8017 0.9853 2.2851 -0.1242 -0.6899

>  <OB_ATOM_TYPES> (1eapB1)
C.3 O.co2 O.3 O.co2 O.2 O.2 C.3 C.3 C.3 C.3 C.3 N.am O.3 C.ar C.ar C.ar C.ar C.ar C.3 C.2 C.2 C.ar P.3

>  <ENSEMBLE_RMSD> (1eapB1)
1.338 1.385 1.538 1.541 1.555 1.638 1.744 1.801 1.821 1.901 1.910 1.920 1.998 2.017 2.038 2.051 2.100 2.103 2.136 2.153 2.182 2.254 2.256 2.260 2.269 2.283 2.306 2.309 2.350 2.365 2.424 2.553 2.596 2.705 2.715 2.760 2.784 2.809 2.845 2.864 2.872 2.875 2.920 2.950 2.956 3.010 3.011 3.016 3.180 3.257

$$$$
