
 OpenBabel03071213D

 45 46  0  0  0  0  0  0  0  0999 V2000
    4.1390   40.7330   13.1560 C   0  0  0  0  0
    3.9130   41.3670   10.7810 C   0  0  0  0  0
    0.9730   22.9710   19.8170 C   0  0  0  0  0
    0.1070   25.1870   20.6420 C   0  0  0  0  0
    2.1620   24.1560   21.6470 C   0  0  0  0  0
    2.8660   27.9860   16.5620 O   0  0  0  0  0
    5.3820   32.7690   12.3130 O   0  0  0  0  0
    1.3890   38.8490   14.1050 O   0  0  0  0  0
    0.8940   38.0090   12.1660 O   0  0  0  0  0
    3.0450   33.1230   16.5620 O   0  0  0  0  0
    2.9290   35.8620   14.4140 O   0  0  0  0  0
    2.1180   27.1890   20.3310 O   0  0  0  0  0
    7.9890   32.5210   18.9980 C   0  0  0  0  0
    6.5210   32.8820   18.7930 C   0  0  0  0  0
    8.4670   31.6490   17.8380 C   0  0  0  0  0
    6.3260   33.5220   17.4150 C   0  0  0  0  0
    8.2110   32.3510   16.4950 C   0  0  0  0  0
    3.2570   30.1720   17.4450 C   0  0  0  0  0
    2.7790   30.7700   16.1010 C   0  0  0  0  0
    3.7010   38.8890   11.5240 C   0  0  0  0  0
    6.5750   33.2520   14.9320 C   0  0  0  0  0
    3.5150   34.2070   12.7690 C   0  0  0  0  0
    5.8330   27.9980   18.4050 C   0  0  0  0  0
    4.3240   32.2220   14.9150 N   0  0  0  0  0
    3.6650   26.7350   18.6380 N   0  0  0  0  0
    3.4250   36.6090   12.3300 N   0  0  0  0  0
    2.2040   25.0180   19.3660 O   0  0  0  0  0
    7.9060   26.8450   22.0310 C   0  0  0  0  0
    6.5620   26.4920   21.8510 C   0  0  0  0  0
    8.5770   27.5760   21.0440 C   0  0  0  0  0
    5.8880   26.8690   20.6830 C   0  0  0  0  0
    7.9030   27.9550   19.8770 C   0  0  0  0  0
    3.5780   40.3810   11.8720 C   0  0  0  0  0
    6.8280   32.5940   16.3040 C   0  0  0  0  0
    3.8500   28.7740   17.2040 C   0  0  0  0  0
    4.9610   33.8490   13.1280 C   0  0  0  0  0
    5.0780   33.4630   14.6120 C   0  0  0  0  0
    4.2950   28.0940   18.5170 C   0  0  0  0  0
    3.2460   38.0170   12.6820 C   0  0  0  0  0
    1.7700   38.2940   12.9820 C   0  0  0  0  0
    3.4060   32.1580   15.8780 C   0  0  0  0  0
    3.2000   35.6310   13.2290 C   0  0  0  0  0
    2.6590   26.4090   19.4870 C   0  0  0  0  0
    6.5580   27.5970   19.6950 C   0  0  0  0  0
    1.3620   24.3570   20.3580 C   0  0  0  0  0
  1 33  1  0  0  0
  2 33  1  0  0  0
  3 45  1  0  0  0
  4 45  1  0  0  0
  5 45  1  0  0  0
  6 35  1  0  0  0
  7 36  1  0  0  0
  8 40  1  0  0  0
  9 40  2  0  0  0
 10 41  2  0  0  0
 11 42  2  0  0  0
 12 43  2  0  0  0
 13 14  1  0  0  0
 13 15  1  0  0  0
 14 16  1  0  0  0
 15 17  1  0  0  0
 16 34  1  0  0  0
 17 34  1  0  0  0
 18 19  1  0  0  0
 18 35  1  0  0  0
 19 41  1  0  0  0
 20 33  1  0  0  0
 20 39  1  0  0  0
 21 34  1  0  0  0
 21 37  1  0  0  0
 22 36  1  0  0  0
 22 42  1  0  0  0
 23 38  1  0  0  0
 23 44  1  0  0  0
 24 37  1  0  0  0
 24 41  1  0  0  0
 25 38  1  0  0  0
 25 43  1  0  0  0
 26 39  1  0  0  0
 26 42  1  0  0  0
 27 43  1  0  0  0
 27 45  1  0  0  0
 28 29  1  0  0  0
 28 30  2  0  0  0
 29 31  2  0  0  0
 30 32  1  0  0  0
 31 44  1  0  0  0
 32 44  2  0  0  0
 35 38  1  0  0  0
 36 37  1  0  0  0
 39 40  1  0  0  0
M  END
>  <MOLID> (1eedA1)
1eedA1

>  <SMILES_CANONICAL> (1eedA1)
CC(C[C@@H](C(=O)O)NC(=O)C[C@@H]([C@@H](NC(=O)CC[C@@H]([C@H](Cc1ccccc1)NC(=O)OC(C)(C)C)O)CC1CCCCC1)O)C	

>  <FINGERPRINT> (1eedA1)
0000000000000111000000000000000000000001010000000101000000000000000000000001000000000001000000100000000000000001000001100000000000000000000110000000000010000000000000000000001010000000000000000000000000000000000000000000000000100000000000000000000000000100000000000110000000001010000000000000000000001000000010001100000000001000001100000000000000000000010000000000001110110000000000000001011000000000100000000001101000000000101000000000000000000000100000000000100000000000000000000000000000011010000000000000100000010000000000100000000000000000000000100000100000000000000000000000001011000000001010000000000000000001000000000000001000000001000000000000000000000001000000000001100000100100000011100111000000000011000000000000000011000000100000010101000000000000000110000000000000000000000000000000000110000000000000000000000000000010000000000000000000000000000000000001000000100000000000000000000000000100000000000000001000000010000000000000011000000000000000111010000000000010010000000000000000000000100000000010111000000000

>  <MACCS166> (1eedA1)
000000000000000000000010000000000000000000000000010011000000000001000000010100000000000011110010101000010100011100101100001001011011000100111100111010110111111110111000

>  <OB_MW> (1eedA1)
633.399

>  <OB_logP> (1eedA1)
5.2579

>  <OB_PSA> (1eedA1)
174.29

>  <OB_MR> (1eedA1)
173.695

>  <OB_ATOMIC_CHARGES> (1eedA1)
7.09467e-05 7.09467e-05 0.0437421792 0.0437421792 0.0437421792 -0.2212797803 -0.220773113 -0.2437494669 -0.2437494669 -0.2733416866 -0.2732398534 -0.2245666832 5.8e-09 7.228e-07 7.228e-07 5.72333e-05 5.72333e-05 0.0443055429 0.0894864336 0.0332833728 0.0242874723 0.1213943276 0.0507145091 -0.2045672767 -0.1675402206 -0.1955206577 -0.4407968845 -2.00181e-05 -0.000321828 -0.000321828 -0.0042099858 -0.0042099858 0.0022776233 0.0017908676 0.1727027641 0.1808709599 0.1260310657 0.1332630466 0.1977367838 0.3841979953 0.2414741214 0.2444717557 0.4209343528 -0.020375725 0.1378771167

>  <MCT_HBD> (1eedA1)
6

>  <MCT_HBA> (1eedA1)
11

>  <ENSEMBLE_TOTAL> (1eedA1)
50

>  <ENSEMBLE_COORDS> (1eedA1)
0.0825 9.1740 -4.9461 -1.8240 9.0889 -3.3850 -3.6883 -7.8528 3.2668 -3.1071 -7.4867 5.6112 -1.3127 -7.8378 3.9905 -2.8998 -2.4836 0.9610 1.8026 3.1561 -3.9026 -2.4597 3.9355 -5.0618 -3.9535 5.6392 -5.1878 -1.0277 1.3143 -0.7537 -1.6195 4.6196 -1.5823 -2.1030 -5.9033 1.7828 4.6259 0.2077 0.8592 4.3440 0.2258 -0.6285 3.7590 1.1890 1.6197 4.4168 1.6300 -1.1916 3.8527 2.5827 1.0281 -0.9159 -1.2192 0.6520 -0.5340 -1.0421 -0.8054 -1.3860 7.1881 -4.9244 2.0291 2.2390 -0.5888 0.6770 4.1449 -2.0694 0.3103 -4.0352 1.8233 0.8393 0.5669 -1.9100 -1.8813 -3.9380 2.9794 -0.7245 5.2364 -3.6369 -2.6445 -5.7877 4.0160 3.0979 -5.0174 4.9174 1.8860 -5.7926 4.7339 3.3466 -3.9567 4.1287 1.0116 -5.4438 3.7753 2.3963 -3.5784 3.0966 -0.7599 8.2733 -4.0768 3.4981 2.5806 -0.4475 -1.4880 -2.6021 0.9015 0.9381 2.8522 -2.8150 1.6170 1.7886 -1.9716 -0.9119 -3.2046 2.1802 -1.8463 6.0253 -4.0735 -2.8627 5.2085 -4.8351 -0.2834 0.4106 -1.1185 -0.6898 4.6721 -2.3798 -2.1877 -5.2745 2.8326 1.2554 -4.2743 2.9465 -2.6751 -7.2181 4.1896
-0.7051 9.6910 -4.3426 0.2352 8.1383 -6.0110 -1.5890 -7.7025 0.7536 -3.5625 -8.2706 2.0985 -1.3484 -8.4291 3.1292 -1.3879 -0.7380 3.2856 -1.5237 1.5188 -3.9843 -2.9233 7.2486 -2.6478 -2.3573 5.2115 -1.8120 -1.2716 1.8748 -0.0791 0.1167 4.5656 -5.8513 -0.0989 -5.8699 2.7871 4.3528 -0.1718 0.8413 3.4212 0.8622 1.4350 3.6309 -1.0294 -0.1768 2.7921 1.7113 0.3507 3.0180 -0.1732 -1.2664 -0.7657 -1.1762 1.0408 -1.8096 -0.4375 0.2302 -0.3249 7.3335 -3.7352 1.4609 1.7257 -1.7245 0.4588 2.7789 -4.3071 -0.3444 -2.9905 4.2103 -0.5766 0.2988 -1.6481 -1.6182 -4.1511 2.4791 -0.3576 4.9329 -3.6136 -2.3498 -6.2839 2.5823 3.7107 -3.9810 5.1682 2.5983 -4.5714 5.8903 3.4821 -3.1242 4.1572 1.3352 -4.2574 5.5509 2.1187 -2.7669 3.8070 -0.7192 8.2719 -4.8500 2.0757 0.8457 -0.6646 -1.4091 -1.7438 2.2861 -0.4548 2.1376 -3.2834 0.3018 1.0958 -2.4764 -0.7303 -3.0303 2.7392 -1.1968 6.0976 -3.7663 -2.1820 6.1100 -2.6219 -1.1841 0.7214 -0.4851 0.0309 4.1690 -4.6919 -1.2463 -5.4723 2.6120 1.0834 -3.3243 4.4627 -2.1863 -7.6459 2.1422
0.1371 9.5179 -2.0754 -2.0938 8.7153 -1.4281 -2.5428 -8.9573 2.8450 -3.6133 -8.2534 4.9338 -1.1880 -7.9738 4.6904 -2.3335 -3.7467 0.0690 -0.2522 1.8333 -3.6839 -2.3919 7.1941 -5.5835 -2.5609 4.9722 -5.1602 0.2008 -1.3494 -2.1514 -2.0098 4.0762 -1.8001 -1.0350 -6.5936 1.9519 5.7714 3.6010 -3.0674 5.3174 3.5702 -1.6234 4.7145 3.0133 -3.9757 4.9934 2.1516 -1.1989 4.3330 1.6086 -3.5526 -0.9922 -1.8511 0.4956 0.4570 -1.5175 0.2272 -0.9535 7.7814 -3.4317 2.6070 2.1726 -1.8252 0.3156 3.5537 -2.1029 0.2225 -3.8615 2.7321 1.2156 0.3789 -0.9678 -2.1283 -4.6588 2.5947 -0.6722 5.3920 -3.1828 -2.7880 -6.6215 3.4389 0.8076 -3.6918 6.9706 0.1989 -2.5744 6.2697 1.1622 -4.8007 6.2974 -0.0054 -2.6444 4.9418 0.9400 -4.8746 4.8646 -0.7691 8.3118 -2.0282 3.9415 1.5174 -2.0902 -1.1436 -3.3388 0.7232 0.1413 2.0672 -2.3399 1.4159 1.2743 -2.0843 -1.1874 -3.6261 2.2164 -1.6382 6.4296 -3.4533 -2.2167 6.0945 -4.8100 0.5850 -0.8407 -1.1038 -0.9368 4.3403 -2.3287 -1.8831 -6.0112 2.6189 0.3660 -3.8470 4.2127 -2.5080 -7.9334 3.9555
-3.8544 6.6043 -6.8833 -3.0813 4.2789 -6.6170 -4.3515 -4.7350 3.0597 -4.1236 -2.9430 4.7184 -3.1385 -5.1370 5.1984 -0.8944 -4.3687 -1.2974 2.3574 2.2781 -3.4276 -3.0570 7.7832 -3.4056 -0.9567 7.7037 -2.5386 -0.3454 0.6033 -0.1754 -1.2812 3.3853 -2.6101 -1.4909 -5.7036 2.7648 2.7481 2.3096 4.1860 1.2704 2.3462 3.8591 3.5767 3.1954 3.2835 0.9657 2.8658 2.4722 3.3963 2.8625 1.8176 -0.2321 -2.2120 -0.5487 0.9874 -1.3990 -0.1840 -1.9077 6.1165 -5.4504 1.5984 2.9501 0.1032 1.0459 3.9872 -2.4456 1.5505 -4.2573 1.3896 1.8764 0.6747 -0.8673 -0.7988 -3.7273 1.7814 -0.4917 5.2867 -3.6853 -2.2018 -3.6602 3.5328 3.3970 -7.9278 2.6014 3.6366 -6.6855 3.3127 2.5575 -7.9506 1.5511 3.0112 -5.5585 2.9286 1.9067 -6.7271 1.1175 -3.2484 5.6091 -5.9258 1.9947 2.4160 1.4593 0.0839 -3.6906 -0.5275 1.4163 2.5210 -2.3914 2.0402 2.0994 -1.0727 0.1352 -4.3176 0.8533 -1.7719 5.8938 -3.9604 -1.8356 7.2144 -3.2325 0.7273 0.0603 -0.4137 -0.3732 4.1521 -2.9106 -1.5134 -4.4798 2.6846 2.1034 -5.5789 1.7924 -3.4338 -4.1385 4.1031
-1.6883 9.5524 -3.7729 -2.0059 8.0650 -5.7011 -3.4753 -7.3345 3.7347 -5.1206 -5.5538 3.1574 -4.3308 -5.8184 5.4626 0.9107 -4.4654 -0.4119 -1.8388 0.8754 -2.0858 0.5436 5.1012 -6.0117 1.7772 5.5069 -4.1376 -0.3097 0.1363 1.5931 -2.3801 3.6435 -3.9518 -2.6078 -5.4011 1.5706 2.8993 5.6215 1.2837 2.3394 5.8985 -0.0959 2.1082 4.5395 1.9890 2.2753 4.6318 -0.9223 2.0530 3.2770 1.1551 -0.5120 -2.7354 0.4333 0.6728 -1.8101 0.6067 -0.5504 7.3716 -3.7953 1.4215 2.3148 -1.0445 -1.5534 3.1944 -1.7484 0.8042 -6.0526 1.9430 0.3571 0.1903 -0.6347 -0.8769 -4.5333 2.8438 -0.8350 5.0891 -2.9845 -2.8637 -4.9650 3.8070 4.8581 -6.1569 3.3254 4.5561 -6.0184 1.9121 3.8594 -6.2476 4.2215 3.2771 -5.9791 1.4977 2.4780 -6.2091 3.7746 -1.8033 8.1110 -4.2055 1.4660 3.5705 -0.2092 -0.1375 -4.2007 0.5037 -0.8381 1.8804 -1.9943 0.1050 1.5977 -0.8359 0.2285 -4.6492 1.9094 -0.6227 5.9044 -4.1546 0.7042 5.4885 -4.7216 0.1749 -0.3971 0.6005 -1.6431 3.9713 -3.0278 -2.1470 -5.0296 2.6449 2.1964 -6.0592 2.4676 -3.9254 -5.9167 4.0101
-2.6855 6.4893 -0.7135 -2.5703 8.9087 -1.1386 -3.2015 -7.5309 5.3678 -1.8980 -9.1382 3.9870 -4.3165 -8.9685 3.7193 -2.5977 -3.5228 0.3368 0.1982 1.3974 -4.6434 -0.0971 7.4649 -5.4346 1.3785 6.4413 -4.0295 0.0234 0.5945 0.2864 -1.8597 4.0933 -4.9310 -0.7032 -6.8889 2.9560 5.9443 2.8275 -1.0707 5.6344 3.0450 -2.5356 4.6859 2.9400 -0.2388 4.5810 2.0710 -3.0189 3.6393 1.9537 -0.7112 -0.8088 -2.0253 0.7805 -0.6146 -1.5445 -0.6443 -1.0162 7.3916 -2.3116 2.3579 1.0758 -2.6429 -1.0780 2.7349 -3.1211 0.2255 -4.3271 2.6285 0.1730 0.2342 -2.0015 -2.1305 -5.1165 2.5055 -0.8725 5.0994 -3.0828 -2.9747 -7.1596 2.9799 1.9663 -2.1493 5.8622 1.9899 -1.6245 4.5091 1.3150 -3.2946 6.1321 1.3832 -2.2988 3.5171 0.6783 -4.0357 5.0565 -2.4159 7.5432 -1.7615 3.3189 2.1495 -2.1807 -1.2665 -3.4751 0.8306 0.2939 2.2055 -3.4820 0.9178 1.4327 -2.3318 -1.2115 -4.0080 2.2617 -0.9990 6.4740 -3.5163 0.2371 6.7688 -4.3183 -0.1079 -0.1253 -0.6974 -1.3209 4.0339 -3.8311 -1.8303 -6.4147 2.8638 0.6983 -3.5500 3.8019 -3.0636 -8.1718 4.0064
-1.8966 5.4237 -7.5243 -1.2852 7.2920 -6.0435 -4.3663 -6.8145 0.8091 -3.8579 -8.3160 2.6776 -2.0437 -7.6437 1.1714 -2.2030 -1.2550 3.5976 0.0200 1.1495 -2.5472 -2.9975 4.1919 -1.9427 -3.7947 6.2033 -2.6240 1.2723 1.3052 1.7296 0.5041 5.3565 -2.0701 -2.4205 -4.6525 1.0497 4.0555 5.3075 0.5083 5.3356 4.5017 0.5247 3.4675 5.4123 -0.8832 5.1374 3.0894 0.0065 3.8685 4.2691 -1.7961 -0.1673 -0.9851 2.4356 -0.1110 -0.5165 0.9969 -2.4138 5.2751 -5.1203 2.7668 2.5275 -0.4036 1.1337 3.1932 -2.8897 0.2283 -3.8468 2.4480 1.6221 0.3818 -0.3724 -2.0815 -4.1413 3.2774 -0.9165 4.2228 -3.5159 -3.0788 -6.0793 2.7306 2.5291 -6.9422 4.2964 2.9782 -5.5616 4.3271 1.3510 -7.2546 3.7285 2.2157 -4.5899 3.7932 0.5468 -6.2112 3.1231 -1.4241 5.7921 -6.1398 4.0604 2.9598 -1.0558 -1.3526 -1.8969 2.6548 0.7588 2.1500 -1.8564 1.9863 1.5140 -1.2149 -0.9376 -3.2470 3.2189 -1.8414 5.3092 -3.7202 -2.9783 5.2957 -2.7266 0.9886 0.4973 0.8505 0.2255 4.3814 -2.7596 -2.5081 -4.9391 2.2383 0.9441 -4.9270 3.1765 -3.3200 -7.1816 1.8363
1.2627 7.1541 -2.4712 1.1233 4.8201 -1.7277 -3.6158 -6.3129 1.4160 -1.7444 -7.0673 -0.0463 -3.6581 -5.8714 -0.9997 -2.6662 -1.2705 3.6851 -0.3689 -0.2183 -3.6839 -3.6818 5.2936 -3.1193 -2.9602 4.5595 -1.0888 -0.4547 2.0397 0.7534 -2.3911 2.0407 -5.3827 -0.6380 -5.3459 2.0049 5.3100 2.4795 -0.1866 5.1643 2.5267 -1.6925 3.9766 2.7165 0.4890 4.1292 1.5308 -2.1705 2.9543 1.7029 0.0225 -0.8258 -0.1173 2.6246 -1.3886 -0.1251 1.2206 -0.7167 5.8497 -3.1154 1.8373 0.6675 -1.9316 -1.6595 1.7050 -3.1308 0.7142 -2.6006 2.7185 -0.2981 0.3497 -0.8336 -1.5245 -3.2080 1.9450 -1.6162 3.8649 -4.2157 -2.1072 -4.7072 0.3671 3.4569 -3.7975 5.7707 2.8062 -2.5008 5.8236 3.1555 -4.6629 4.7866 1.9057 -2.1610 4.8843 2.1912 -4.2922 3.7657 0.7699 5.7762 -2.8423 2.7951 1.7457 -1.4847 -1.2704 -1.2880 3.4733 -0.2721 1.1073 -3.1888 0.4018 1.1316 -1.8280 -0.7669 -2.6565 3.0493 -1.4343 4.5306 -2.9485 -2.7564 4.7764 -2.2760 -0.6567 0.8867 0.3859 -1.9181 2.5304 -4.3606 -1.3766 -4.5046 1.5042 1.5755 -3.0978 3.8219 -2.7626 -5.9796 0.2130
1.2175 6.3659 -4.9789 1.5327 8.4038 -3.6342 -2.7325 -7.5539 0.8813 -2.0783 -8.7464 2.9640 -0.8913 -9.1786 0.8742 -2.5059 -3.0817 1.3295 -1.0127 1.4792 -4.2635 -0.9884 5.8445 -0.3655 -2.8010 6.8108 -1.3575 0.3978 0.7846 0.4804 -3.4445 3.4271 -3.9073 -1.4645 -6.1552 3.8502 5.7583 2.0781 -2.6849 4.9830 2.6473 -3.8541 4.9134 2.0864 -1.4287 3.6936 1.8843 -4.0711 3.6306 1.3114 -1.6402 -0.3991 -2.0283 0.8611 -1.1054 -1.0216 -0.0226 -0.5354 7.0879 -3.3926 1.6381 0.9885 -3.0613 -1.5625 3.0148 -2.4944 0.5327 -3.0604 3.5240 -0.2803 0.4063 -1.7130 -0.4967 -4.8413 2.2106 -1.9810 5.1591 -3.5451 -0.5975 -7.0834 1.9441 0.5611 -2.3202 7.7343 -0.0729 -1.3866 6.8209 1.0519 -3.4839 7.2723 -0.1434 -1.6707 5.5077 0.9952 -3.7809 5.8511 0.9516 7.0115 -3.6408 2.8455 1.8600 -2.8148 -1.3425 -2.5377 1.9354 -0.4588 2.3186 -3.2625 0.4253 1.5116 -2.3242 -0.7326 -3.5727 2.8664 -1.0210 5.8344 -2.7000 -1.7289 6.2304 -1.4350 -0.2225 0.1429 -0.3598 -2.4194 3.8670 -3.3902 -0.9424 -6.0315 2.7469 0.4138 -2.9152 5.0003 -1.5806 -8.1062 1.6876
-0.9880 8.3394 0.0635 -1.0860 9.3974 -2.1557 -3.1232 -7.9857 2.0260 -1.7459 -8.8228 3.9248 -1.1255 -9.3509 1.6186 -1.8135 -1.3451 2.4024 -1.2986 1.2319 -4.4670 0.2555 5.1858 -4.9441 0.9532 7.2879 -4.4671 0.4162 -0.0012 0.0421 -2.6884 4.3149 -3.8843 -1.6380 -5.9871 4.2410 5.3610 1.7829 -2.4388 4.7390 2.4233 -3.6589 5.1025 0.2928 -2.3808 3.2434 2.1959 -3.7444 3.7520 -0.1143 -2.9301 -0.7691 -2.5097 0.5742 -1.3758 -1.5396 -0.4167 -0.1657 7.1136 -1.9086 1.4434 0.5208 -3.4824 -1.6003 2.6434 -2.5591 0.4014 -3.0572 3.3406 -0.4389 -0.1613 -2.1100 -0.8652 -4.8852 2.3619 -0.8732 4.9043 -2.5511 -0.8698 -7.1323 2.4066 0.8222 -1.5886 7.3424 0.4338 -2.9661 7.0998 0.9713 -0.7409 6.3091 0.2458 -3.4029 5.8409 0.7787 -1.2160 4.9497 -1.2030 8.0904 -1.4098 2.7527 1.0213 -2.9212 -1.5976 -2.6281 1.8382 -0.6066 1.9188 -3.4392 0.2747 0.9778 -2.6404 -0.9647 -3.5371 2.8800 -0.7106 6.2572 -3.0346 0.2706 6.3103 -4.1876 -0.3576 -0.4933 -0.7730 -1.8028 4.0344 -3.0833 -1.2003 -5.9997 3.0962 0.4156 -2.4916 4.7189 -1.7246 -8.2878 2.5113
-3.8221 9.6107 -4.0172 -3.7220 8.1883 -2.0040 -1.5912 -8.2648 2.0780 -3.5440 -7.4044 0.8742 -3.5639 -7.3901 3.3267 2.2640 -3.1317 1.6712 -1.3149 2.9045 -1.2237 -0.5971 6.8437 -6.3095 0.0684 8.7397 -5.2447 -1.2845 -0.2842 -0.4962 0.2715 5.7458 -1.9582 -0.9065 -6.1147 3.9664 4.9058 0.2990 -3.8444 4.6926 -0.6462 -2.6859 3.8064 0.1882 -4.8777 3.4023 -0.3326 -1.9636 2.4931 -0.3388 -4.3381 0.2145 -1.9906 1.2888 0.3247 -0.4855 1.2776 -2.6727 7.4255 -4.1073 1.7912 1.4159 -2.6866 -0.0753 3.6502 -3.1022 0.0376 -3.0597 4.4938 0.6886 0.9394 -0.5769 -0.6022 -4.3425 2.5085 -0.9864 5.6832 -3.9096 -2.1607 -5.8856 2.0539 1.5930 -4.9072 8.0341 0.1767 -4.6218 7.8925 2.4431 -4.6101 7.0354 -0.2876 -4.0604 6.7617 1.9456 -3.9826 5.8246 -2.9830 8.6249 -3.2438 2.2397 -0.0170 -2.8826 1.1317 -2.5896 2.3297 -0.0022 2.9283 -1.7729 0.4937 1.4962 -1.9013 0.4894 -3.6732 3.1817 -1.1994 7.1040 -4.0180 -0.4949 7.6529 -5.2283 -0.1955 0.0339 -0.0304 -0.2286 5.1343 -2.8962 -1.1812 -5.5161 2.9322 0.6303 -3.7343 5.6815 -2.6878 -7.2246 2.1066
-2.3463 8.1762 -1.9630 -2.7024 9.0563 -4.2347 -3.0052 -6.2200 -1.1753 -4.1865 -4.9950 0.5930 -3.3467 -7.3070 0.9937 -2.1101 -1.6456 2.7793 -0.7205 1.1825 -2.0721 -3.1744 4.3964 -5.3867 -0.9006 4.2428 -5.4495 2.3330 1.6828 1.7993 -2.6392 3.5278 -1.5785 -2.2143 -5.4664 2.9720 5.6238 0.9405 -4.2024 4.5473 2.0024 -4.2880 5.1462 -0.3484 -3.5722 3.2353 1.5813 -3.6642 4.4677 -0.1038 -2.2418 0.0791 -1.1035 2.0019 0.5938 0.2162 2.5304 -1.6233 6.8614 -3.9297 2.1249 0.4691 -1.7562 -0.3135 3.3281 -1.0502 1.0848 -3.4235 3.5595 0.8258 0.8689 0.2386 -0.6846 -4.0177 2.0170 -1.0904 4.8435 -2.7064 -1.7927 -5.4710 0.7150 2.1140 -4.3936 7.5918 1.2587 -3.2566 7.3045 2.5226 -5.1978 6.5944 0.8910 -2.9941 6.0378 2.1295 -4.9115 5.2263 -2.6701 7.8069 -3.3903 3.4355 1.0067 -2.2776 -0.7315 -1.7971 3.0715 0.2867 2.1403 -1.7765 1.3811 1.5012 -0.9362 -0.3828 -3.2681 3.2147 -2.0163 5.4314 -3.6425 -1.9256 4.6311 -4.9106 1.3672 0.9882 1.4961 -1.4878 3.8908 -1.7954 -1.6396 -5.0078 1.9907 1.3333 -3.8610 4.9567 -3.0770 -5.9834 0.3158
2.7465 7.3205 -3.3321 0.9889 8.7543 -2.3619 0.1209 -8.4722 1.9511 -2.2653 -8.5407 1.3828 -1.6165 -8.2913 3.7291 2.0954 -2.7205 1.1556 -2.6561 2.3794 -2.4648 -3.1255 6.1944 -3.4620 -2.1503 7.2093 -5.2392 -0.8016 0.9962 0.8085 -0.3134 4.5875 -0.3760 0.0796 -5.9715 3.8659 3.8618 0.7837 -4.9977 3.4981 -0.4772 -4.2429 2.6229 1.5865 -5.3324 2.7045 -0.1558 -2.9944 1.8417 1.9152 -4.0785 -0.1165 -2.2401 0.4256 -1.2962 -1.3396 0.7151 0.3829 7.0096 -3.9990 0.7896 1.0364 -2.0193 -0.5710 3.5000 -2.5024 -0.4639 -2.5780 3.7113 -1.2819 0.0159 -1.2461 -0.3517 -4.4688 2.1600 -0.8864 5.8612 -2.2052 -1.3052 -6.5013 2.1090 0.6360 -2.9045 7.8369 -0.7260 -3.1338 7.3920 1.5885 -2.5749 6.9462 -1.0302 -3.0448 6.0853 1.2550 -2.4572 5.5364 1.3142 7.3699 -2.8652 1.4666 0.6586 -3.3163 0.8073 -2.3543 1.6185 -1.3568 2.3648 -1.8929 -0.7216 1.0078 -2.1448 0.3706 -3.3342 2.6957 -0.7463 6.0623 -3.6294 -2.0504 6.5786 -4.1947 -1.0756 0.0185 0.1193 -0.5706 4.6809 -1.5729 -0.4536 -5.6843 2.7996 0.0035 -2.7199 5.1157 -1.2417 -7.9268 2.3108
0.6298 9.1383 -6.6918 2.6161 7.7703 -6.1951 -0.3105 -5.6851 5.6584 -2.6528 -5.4785 6.3367 -1.6008 -3.5973 5.1812 -0.0746 -2.2281 1.9813 1.0168 2.0969 -2.7609 -2.1640 7.5560 -3.2720 -2.4473 7.6034 -5.5263 1.9614 -0.0545 -0.4111 -1.2705 3.8514 -4.3644 -1.7482 -6.3657 1.9073 -2.6081 3.1526 3.7054 -2.9987 1.7222 3.4015 -1.4128 3.6467 2.9174 -2.8597 1.4105 1.9295 -0.6080 2.5312 2.2887 1.1986 -2.8051 0.0582 0.6055 -1.9450 -1.0324 0.6416 7.6575 -4.7129 -1.5060 2.1074 -0.0085 -0.4394 3.8477 -2.0980 1.9754 -4.5381 2.2384 -0.2779 0.2467 -0.9540 -0.3265 -4.8243 2.8679 -0.2249 5.7389 -3.5028 -2.1415 -5.6636 4.0239 4.6053 -7.5861 0.7405 3.1704 -7.7142 0.5661 5.1117 -6.5046 1.3582 2.3470 -6.7535 1.0219 4.2208 -5.4656 1.8445 1.1094 7.8179 -6.1407 -1.4479 1.6162 1.4218 0.1432 -3.2679 1.0384 -0.2572 2.3458 -2.1769 -0.2886 1.6866 -0.8070 0.5402 -4.5624 1.7393 -0.4442 6.6081 -4.6332 -1.7842 7.2931 -4.5451 0.8666 -0.4940 -0.7457 -0.6980 4.4435 -3.4564 -1.4051 -5.6760 2.8641 2.8890 -5.5732 1.6774 -1.6512 -5.1060 5.2675
-1.3603 9.4766 -2.2462 -3.5090 8.3145 -1.9359 -4.6146 -5.0446 2.2113 -3.7049 -7.1766 1.4196 -3.1090 -5.1190 0.2223 1.3777 -3.4635 1.2373 1.7407 3.9280 -2.4285 -1.5710 4.5053 -5.2630 -3.3595 5.8702 -5.5590 1.4002 -1.1457 -0.6787 -2.5279 3.6218 -1.8035 -2.3265 -3.3163 2.5909 4.7439 -0.3540 -5.0780 3.2370 -0.4042 -5.1928 5.2574 0.6744 -4.0909 2.6310 0.9593 -4.9512 4.2616 1.0351 -3.0102 -0.0426 -1.6137 1.7549 0.6178 -0.2915 1.4224 -1.8213 7.4277 -3.5361 1.8186 0.8620 -2.6423 -0.2280 3.7220 -1.1477 1.6542 -3.9617 4.2146 0.5568 1.0167 -0.5783 -0.4016 -4.5149 3.0549 -1.1458 5.2129 -2.7811 -2.2697 -5.6072 2.4608 1.4139 -5.0687 8.3350 1.1963 -6.0471 7.2852 1.6324 -3.7802 8.0191 1.2075 -5.6643 5.9959 1.6680 -3.3703 6.6259 -2.0372 8.1288 -2.2145 2.8957 1.4297 -3.5360 0.9675 -2.6049 2.2904 0.7287 2.9952 -2.0662 1.4122 1.7628 -1.4894 0.4457 -3.4128 3.4735 -2.1799 5.9589 -3.4574 -2.4417 5.4600 -4.8588 0.9100 -0.2120 -0.0503 -1.4333 4.1609 -1.9349 -1.7180 -4.3767 2.6811 1.4341 -4.2683 5.6517 -3.4072 -5.7045 1.5842
-0.3546 7.8135 -5.7395 -0.8105 8.8140 -3.5353 -0.6965 -8.1650 1.1336 -1.9417 -8.7851 3.1520 0.0095 -7.3144 3.3649 -3.2485 -1.8713 1.0642 -0.2343 2.2155 -0.5749 -3.3857 4.1343 -2.5749 -4.0698 6.2508 -2.1252 -0.2368 -0.9038 -1.4315 0.3878 5.4115 -0.9794 -0.6219 -5.2024 1.1891 5.9997 2.2066 -4.7983 5.6854 0.7606 -4.4736 5.2494 3.2002 -3.9379 5.0056 0.5985 -3.1319 3.8227 2.7655 -3.6873 -1.1015 -0.9362 1.3871 0.3007 -1.2079 0.8900 -1.7969 6.6156 -4.1380 3.2699 1.5045 -1.6232 0.9626 3.4408 -2.2299 -0.5484 -2.9033 3.3959 1.6183 0.1588 -0.5152 -2.3340 -4.3461 2.4910 -0.8776 4.7851 -2.8295 -2.0750 -6.5711 2.3206 -0.4486 -4.0970 7.5044 -1.4265 -3.1265 7.0469 0.4150 -4.6462 6.6322 -1.4661 -2.7684 5.7509 0.3701 -4.2626 5.2334 -0.5931 7.5192 -4.2795 3.7141 1.3874 -3.0631 -1.9051 -2.2187 1.3691 1.0766 2.5088 -1.0401 1.7858 1.2302 -1.4735 -1.8888 -2.9786 2.6857 -1.7858 5.9017 -2.8045 -3.1902 5.4700 -2.4659 0.4958 -0.6426 -0.4840 0.1468 4.6594 -1.9162 -1.5687 -5.3569 1.9531 -0.5443 -3.3743 4.8044 -1.1649 -7.6742 2.4841
-1.4506 6.6910 -5.7189 -1.9613 7.3593 -3.4066 -5.5406 -3.9113 3.0673 -5.4442 -1.7400 1.9330 -3.7312 -2.2857 3.6032 0.0449 -4.2349 -1.3711 0.5586 0.3730 -1.9853 -3.6917 2.3218 -2.6677 -4.8219 4.2652 -2.3593 3.0699 -1.3871 -1.6053 -0.8764 3.7164 -0.5640 -2.8595 -5.1286 2.5832 3.8233 6.0101 1.0423 4.4115 4.7548 1.6485 2.6411 5.6699 0.1622 4.8190 3.7630 0.5771 3.0548 4.7142 -0.9369 0.6471 -2.4462 0.0832 2.0777 -2.1239 0.4467 -2.5405 5.0749 -4.2111 2.6762 2.5325 0.2214 0.7366 2.7158 -2.0308 0.1302 -4.4034 2.3810 2.5713 0.1524 0.0649 -1.7656 -4.0308 0.8608 -1.3573 3.4624 -2.8240 -3.8398 -3.4082 1.4291 3.6032 -6.6344 3.5199 2.2750 -7.0704 3.9133 3.7511 -5.5476 2.7428 1.1890 -6.3912 3.5001 2.5816 -4.7977 2.3269 -1.5441 6.2100 -4.2922 3.7019 3.4528 -0.3992 0.4975 -3.9443 -0.0611 0.9112 1.4828 -1.1722 2.3535 1.3659 -0.6948 -0.4244 -4.5733 0.9746 -2.4712 4.3720 -2.8741 -3.7807 3.6716 -2.6113 2.6212 -1.1018 -0.5011 -0.5739 3.3558 -1.6959 -2.8097 -4.2552 1.7254 1.3466 -5.2140 2.6622 -4.6093 -2.8581 2.5138
-1.1145 6.7589 -4.4165 1.2467 6.0932 -4.2450 -3.8796 -2.6381 1.5857 -5.3937 -4.4738 1.0182 -3.3622 -4.1827 -0.3132 0.8878 -5.7914 0.5759 -1.7765 -0.3957 -0.5563 -2.1453 6.0668 0.1541 -3.3516 6.4081 -1.7423 0.1354 -1.6032 -3.0567 -1.9181 2.1439 -2.1725 -1.4315 -5.8847 2.8933 4.9133 3.1121 -1.8088 4.8400 2.4229 -0.4669 3.5124 3.4122 -2.2873 4.1256 1.0960 -0.5846 2.7162 2.1414 -2.4732 0.1879 -3.9908 -0.8157 1.1805 -3.2869 -1.7124 -0.2466 5.7901 -2.3064 1.6180 1.2134 -0.3975 -1.2801 1.8301 0.1329 0.5609 -2.3515 1.8971 0.9712 -1.0500 -0.9583 -1.2516 -3.9225 1.6940 -1.0025 3.9056 -0.9664 -3.2977 -4.9597 2.0117 2.5702 -1.2412 5.5187 1.9813 -2.5617 5.3922 2.5076 -0.3766 4.4911 1.3678 -2.9194 4.2504 1.8464 -0.7652 3.2584 -0.1589 5.7565 -3.8146 2.8101 1.1687 -1.3220 0.8566 -4.3773 0.4848 -0.7383 0.4277 -0.0470 0.5039 0.3189 -0.9155 0.1878 -3.8077 1.7239 -1.4253 4.9697 -1.8381 -2.4186 5.8726 -1.1579 0.6872 -1.9013 -2.0032 -1.4401 2.6095 -1.1444 -1.9433 -4.9859 2.2290 1.3022 -1.9898 3.1336 -3.9410 -4.0608 1.0779
-1.3278 6.7767 -5.6809 -1.9518 7.4035 -3.3838 -5.8093 -4.8278 2.5328 -5.8102 -2.3868 2.3242 -4.3134 -3.4356 3.9602 0.0370 -4.0776 -1.2068 0.5546 0.4424 -1.7416 -3.5695 2.2861 -2.7353 -4.8070 4.1826 -2.5969 3.0651 -1.3022 -1.4156 -0.9780 3.6983 -0.5443 -2.9836 -5.6170 2.1749 4.7212 6.2812 -0.6893 5.3856 5.4076 0.3521 3.2195 6.1361 -0.6793 4.5363 4.2468 0.8265 2.8100 4.7084 -0.9511 0.6415 -2.3563 0.3252 2.0860 -2.0390 0.6436 -2.4632 5.1224 -4.2470 2.7368 2.6300 0.3819 0.7606 2.7703 -1.9154 0.0116 -4.3598 2.5487 2.5843 0.2468 0.2483 -1.8200 -4.0162 0.9730 -1.2807 3.5199 -2.8416 -3.9500 -3.6292 1.5494 3.5633 -6.4219 3.7590 2.2516 -6.9000 4.1592 3.6721 -5.3458 2.9607 1.1410 -6.2729 3.7293 2.4760 -4.6507 2.5297 -1.4819 6.2732 -4.2672 3.6525 3.6560 -0.2545 0.4756 -3.8470 0.1207 0.9465 1.5858 -0.9951 2.3946 1.4611 -0.5284 -0.4671 -4.5165 1.1140 -2.4287 4.3843 -2.9271 -3.7233 3.6315 -2.7441 2.6221 -1.0134 -0.3093 -0.5828 3.3816 -1.6610 -2.9138 -4.5148 1.6420 1.2568 -5.1090 2.8668 -4.9402 -3.5933 2.5939
-4.0710 5.3720 -5.6161 -2.6506 7.2523 -6.3310 -4.0294 -5.2248 2.6187 -3.0686 -3.4829 4.1250 -4.5358 -5.2280 5.0167 -0.3221 -2.2884 2.8167 2.8959 2.3124 -1.9347 0.8424 7.4386 -4.3882 0.1621 6.7474 -2.3235 -1.1672 -0.0297 -0.2809 1.6132 3.7881 -4.7333 -0.1273 -5.9819 4.4861 -0.6679 5.2217 2.9020 0.8325 5.4098 2.9519 -1.0718 3.7873 3.1603 1.6026 4.3723 2.1638 -0.3072 2.7800 2.3255 -0.4487 -2.6407 0.4711 0.4799 -1.7891 -0.3669 -2.0672 5.9622 -4.3055 1.5592 2.3605 0.7442 0.7632 2.3630 -3.0096 0.5379 -5.3632 0.8297 1.0606 0.4797 -0.6950 -1.0232 -4.9790 2.6068 -0.3863 4.3308 -3.6753 -2.3756 -5.8515 4.2516 4.4588 -6.9636 0.3283 3.6305 -7.3850 1.4437 4.0289 -5.9981 -0.5029 2.4247 -6.8216 1.6388 2.7234 -5.3985 -0.3011 -2.6530 5.8836 -5.6954 0.7083 3.4195 1.4030 0.2461 -3.0335 1.7534 1.5349 2.6639 -1.7424 0.9437 1.9129 -0.5616 0.2270 -4.5254 2.0497 -0.5997 5.6011 -4.3279 0.1570 6.6318 -3.5398 0.0037 -0.3647 -0.4220 0.7397 3.5674 -3.9012 -1.0963 -5.5898 3.8407 1.9572 -5.7824 0.7355 -3.4645 -4.9367 3.9913
-5.0356 6.0827 -2.4151 -3.4907 7.9871 -2.1701 -5.1014 -4.3447 2.8066 -5.0559 -6.6954 1.9837 -5.7501 -4.8714 0.5003 -1.3777 -1.5777 2.7569 1.2767 0.5000 -3.2329 -1.5660 5.1271 -5.2702 -0.0928 5.8579 -3.6888 1.3728 1.0813 1.5869 -1.7699 1.8675 -3.7783 -2.4110 -5.8252 3.0225 5.8903 5.0864 -2.7437 4.6576 4.8766 -3.5935 5.5359 4.9613 -1.2785 4.0448 3.5197 -3.3257 4.9683 3.5899 -0.9880 0.3074 -1.8508 1.0956 1.6928 -1.2661 1.2429 -2.6169 5.6875 -2.0732 3.4471 1.8088 -1.6905 -0.3757 1.5407 -1.8587 0.8468 -4.5645 2.3878 2.0181 0.2911 -0.5038 -1.4408 -4.2515 1.6333 -1.3595 3.6428 -2.3312 -3.4740 -5.0783 1.1321 2.6850 -5.7935 6.0504 2.9193 -4.4678 5.5075 1.8494 -6.6408 5.4234 2.3074 -4.0879 4.3719 1.1962 -6.2355 4.1913 -3.6463 6.5883 -2.7139 3.7621 3.2770 -1.8536 -0.1918 -2.2900 2.4515 1.0545 1.5891 -2.3515 2.0410 1.5605 -1.1957 -0.4385 -3.7815 2.5583 -2.1059 4.6497 -3.0477 -1.1253 5.2815 -3.9959 1.6584 0.1696 0.8190 -1.2450 2.3444 -2.7780 -2.4506 -5.0963 2.0366 1.4049 -5.0035 3.6931 -4.8153 -5.2464 1.6267
-2.2727 7.0368 -3.2682 -2.0418 5.6977 -1.2309 -4.5457 -6.3246 0.2296 -6.2038 -4.5253 0.4235 -4.9923 -5.2458 2.4322 -2.4817 -1.3850 3.5233 1.3213 -0.4892 -2.0212 -3.6179 1.8893 -1.9309 -3.6512 1.8072 -4.2071 0.5717 2.8977 1.4713 0.3916 1.1692 -4.6274 -2.1410 -5.0742 1.6412 6.5593 3.0820 1.4117 6.5971 2.9173 -0.0957 5.3700 2.4112 2.0658 5.6169 1.8800 -0.5981 4.1020 2.6569 1.2782 -1.2177 0.0696 2.1303 -0.0152 0.8665 2.5871 -2.6180 4.6090 -3.3838 3.3333 0.9842 -0.3887 0.0320 1.4940 -2.2652 0.2398 -2.2588 1.0845 1.0804 0.8652 0.4712 -2.1095 -2.8112 1.1604 -1.0155 2.8579 -3.9489 -3.9032 -4.0303 0.6018 4.0340 -3.6554 2.4636 3.3695 -2.5469 3.1234 3.4134 -4.3168 1.4699 2.1479 -2.1570 2.7172 2.1014 -3.8862 1.0212 -1.8170 5.7066 -2.7232 4.2010 2.2003 -0.1663 -1.2358 -1.2539 2.8606 1.4034 0.9282 -1.9706 1.8912 1.3829 -0.6053 -0.9704 -2.4600 1.9731 -2.0704 3.2428 -3.0381 -3.1852 2.2443 -3.1665 0.5523 1.6711 1.4546 -0.1527 1.8046 -3.7285 -2.6780 -4.0633 1.2010 1.4849 -2.8565 1.6290 -4.8775 -5.0325 0.9391
-1.7606 7.1945 -6.0453 -1.3245 8.3470 -3.9142 -3.6363 -6.8019 0.8419 -5.3633 -5.3303 1.7659 -4.0731 -6.7473 3.2960 0.5746 -4.0098 0.5755 -0.2716 1.1164 -1.3130 -3.6738 4.2329 -1.3306 -4.2277 6.4291 -1.4444 1.6986 -1.3954 -1.3903 0.2741 5.0096 -1.3900 -1.2392 -6.1830 2.4053 4.9364 4.8546 -4.9495 5.6632 3.6228 -4.4496 3.6534 5.1436 -4.2020 5.1430 3.1347 -3.1144 2.8719 3.8805 -3.9184 0.7266 -1.7621 1.3646 2.0338 -1.1026 0.9750 -2.6366 6.2384 -3.9481 3.1255 2.6250 -1.7756 0.2932 2.9630 -2.6477 1.0557 -4.7880 3.6212 2.4478 0.6486 -0.5762 -1.1540 -3.9060 2.8349 -1.5259 4.4480 -2.7530 -3.0802 -4.8325 2.1529 0.3069 -5.9533 7.6731 0.4713 -6.9351 6.6175 0.3401 -4.6406 7.3821 0.6566 -6.5317 5.3482 0.5724 -4.2043 6.0154 -1.4899 6.9997 -4.5742 3.6629 2.8168 -3.1785 0.9595 -3.2213 1.6861 0.7107 2.1322 -1.4576 2.0863 1.5165 -1.6850 0.2703 -3.6689 2.9634 -2.2458 5.6829 -2.5962 -3.4837 5.5061 -1.7519 2.0124 -0.6573 -0.4623 -0.2928 4.2545 -2.1711 -1.7723 -5.0805 2.4653 0.7055 -5.1122 5.0309 -4.0014 -5.9336 2.0241
1.5329 6.0855 -7.5417 -0.1396 4.3446 -6.9620 -2.3924 -7.1488 4.9225 -0.4318 -6.5611 6.2715 -0.1076 -7.7855 4.1727 -1.9299 -4.1508 -0.1096 -2.4605 3.9608 -1.9139 0.5881 7.3800 -2.5637 1.7834 8.2646 -4.2757 -2.9169 0.2502 0.2250 1.7885 3.8982 -3.0687 -1.7700 -6.0971 2.2326 -0.8809 4.4394 4.5122 0.0961 5.1568 3.6057 -2.0857 3.9613 3.7300 0.5168 4.2699 2.4539 -1.6631 3.0643 2.5853 -1.0180 -2.0162 0.4450 -1.2709 -1.1786 -0.7871 -0.1753 6.5523 -5.7690 -0.1822 2.8239 0.6003 -0.4438 3.0713 -2.8169 0.7327 -5.4380 0.4912 -1.1082 1.1746 -0.9040 -0.3878 -4.2478 2.3689 -0.0088 5.1864 -3.7895 -0.8199 -5.4451 4.2191 4.6028 -6.7327 1.7752 3.4416 -6.8904 2.6305 4.4825 -6.1216 0.5831 2.2463 -6.4276 2.2271 3.1865 -5.6318 0.1438 0.1288 5.8254 -7.0593 -0.6805 3.7694 1.6696 -0.7116 -3.4422 0.0460 -1.1471 3.5547 -1.5655 -1.2351 2.5370 -0.4451 0.1974 -4.1324 1.0474 0.7057 6.1313 -4.6098 1.0831 7.3663 -3.8244 -1.8668 0.1423 -0.3986 0.5867 4.0784 -3.2297 -1.0357 -5.3527 2.8731 2.1124 -5.7592 0.9434 -0.9420 -6.7292 4.8589
-5.0082 4.7022 -1.4353 -5.4085 5.2143 -3.7982 -5.5891 -2.6207 2.5247 -3.5648 -1.2609 2.8480 -4.1743 -3.0413 4.4817 1.5562 -4.2949 -0.6735 2.4586 1.8185 -2.8496 -2.0172 5.8880 -5.8097 -0.5516 6.5664 -4.1932 0.3659 0.2372 1.4894 0.0268 3.0785 -4.8289 -1.5159 -3.5583 3.4380 5.1859 4.6299 1.4507 4.3903 4.9331 0.1970 4.7844 3.3133 2.0815 2.8965 4.8248 0.4370 3.2871 3.2320 2.3077 0.1456 -2.3959 -0.3022 1.2711 -1.7100 0.4405 -3.1369 5.4036 -2.8354 2.7897 2.3773 0.0327 0.0962 2.0494 -2.6684 0.1623 -5.9950 1.0828 1.4843 0.4360 -0.5440 -1.5672 -4.3226 1.2559 -1.1202 4.0489 -3.0485 -3.4682 -3.6186 2.2285 3.4451 -7.2389 3.5420 3.6799 -6.5513 2.2861 2.1880 -7.5205 3.9282 2.6386 -6.1602 1.5307 1.0639 -7.0864 3.1169 -4.4243 4.6141 -2.8225 2.5139 3.4812 1.0274 0.2532 -3.9060 -0.2776 1.4341 2.3885 -2.0488 1.5212 1.8803 -0.6162 -0.1363 -4.5037 1.0677 -2.1394 4.7685 -3.7727 -1.4665 5.8500 -4.5692 0.9726 -0.2454 0.5396 -0.3152 3.1026 -3.6517 -2.1219 -3.7859 2.3975 1.2766 -6.3843 1.9888 -4.1627 -2.6379 3.0246
-4.1217 3.7039 -2.1859 -3.8308 5.0977 -0.1586 -4.4116 -5.6343 1.2818 -5.9290 -3.8073 1.8939 -4.6402 -4.9125 3.6556 0.6523 -5.1847 0.7052 -0.8878 0.2727 -2.4625 -0.8994 7.6375 -1.7606 0.8096 6.3455 -1.0207 0.1722 -2.4314 -4.0223 -0.6221 2.7499 -0.4151 -1.8569 -4.7182 2.8493 5.1743 1.7982 0.6054 3.8001 1.2546 0.9286 5.5876 1.6079 -0.8395 2.9315 1.1935 -0.3038 5.0194 0.3480 -1.4574 -0.1704 -3.7502 -1.0161 0.8133 -3.7913 -2.1619 -2.5806 5.6522 -2.2834 2.8546 0.4264 -2.6791 0.5214 2.1802 -2.4632 0.5141 -1.6058 1.3793 1.4182 -1.5030 -2.2900 -1.4930 -2.9819 1.3626 -0.6206 4.2348 -2.2059 -3.5888 -3.4583 2.0203 2.6237 -0.1413 4.8088 1.7732 0.7256 4.0143 2.7307 -1.4466 4.5027 1.0835 0.2216 2.9748 2.0158 -1.9809 3.3570 -3.8404 5.0896 -1.6668 3.5131 0.2435 -1.3282 0.5734 -3.8297 0.2986 0.4060 0.7189 -2.0771 1.4486 -0.1421 -2.7738 -0.0498 -3.0109 1.4133 -1.3166 5.3011 -1.5276 -0.3400 6.4491 -1.4295 0.7396 -2.5118 -2.9383 -0.3005 3.0573 -1.5578 -2.2759 -3.8188 2.1284 1.2046 -1.1880 2.6312 -4.6047 -4.4610 2.2140
2.2299 2.2081 -6.2601 3.5379 4.0116 -5.2069 -1.9077 -8.3038 3.0192 0.4924 -8.6285 3.3948 -0.2615 -7.7876 1.2187 -2.6539 -2.4856 3.3885 -3.1567 3.8651 -1.8278 -1.2438 6.5746 -4.8794 0.7606 7.3549 -5.6001 -3.6853 1.5644 2.1743 1.0949 4.3796 -1.8028 -2.0901 -5.5364 1.9924 2.3607 1.3440 2.5636 1.0263 1.1014 3.2396 2.1928 1.6239 1.0842 0.0642 2.2434 2.9845 1.2331 2.7724 0.8577 -1.7604 -0.8535 1.9367 -2.8713 -0.3781 1.0299 1.1239 4.3388 -5.6970 -1.0941 3.5737 1.2409 -0.9104 3.0718 -1.9146 0.0375 -3.2452 0.9243 -2.4998 1.7977 0.1875 -0.5646 -4.2028 3.1037 -0.2487 4.4855 -3.6954 -0.3833 -6.4339 3.2463 4.3119 -3.2809 0.7015 3.5669 -4.5002 0.9568 3.6620 -2.1114 0.5598 2.2263 -4.4625 1.0489 2.2130 -2.0711 0.6514 2.1843 3.3479 -5.2733 -0.1011 2.4665 1.4976 -1.9116 -2.3362 2.1869 -1.9407 3.8235 -1.0986 -2.1933 3.2060 0.2607 -0.5453 -2.9937 2.3042 0.6836 5.1965 -4.5314 0.0946 6.4802 -5.0604 -3.0693 1.0938 1.2250 0.0989 4.0486 -2.4363 -1.0926 -5.4064 2.6934 1.5229 -3.1970 0.9059 -0.5334 -7.7591 2.7053
-2.8139 6.8126 -2.6618 -1.8775 5.2608 -1.0013 -5.3977 -5.8612 0.9808 -6.0333 -3.9732 -0.4511 -5.6323 -3.5740 1.9337 -2.3317 -1.8526 3.3894 1.5295 -0.4769 -2.0454 -3.5165 1.5119 -1.9273 -3.5828 1.6162 -4.2045 0.5808 2.6490 1.6786 0.5425 1.2782 -4.5881 -2.9005 -4.7331 2.3908 5.9445 4.1905 0.9246 6.4532 3.3351 -0.2161 5.3215 3.3643 2.0275 5.5972 2.1178 -0.4954 4.1954 2.4766 1.5394 -1.1230 -0.3212 2.0190 0.0036 0.5161 2.5840 -2.7287 4.4122 -3.2007 3.3982 1.0305 -0.3071 0.1051 1.4202 -2.2223 0.4611 -2.5301 0.9617 1.1474 0.7256 0.5055 -1.8516 -3.2365 0.9636 -0.9954 2.8178 -3.8402 -3.8190 -4.1421 0.3729 4.3406 -3.7696 2.2874 3.6105 -2.7380 3.0022 3.7913 -4.3561 1.2094 2.3762 -2.3844 2.6007 2.4600 -3.9705 0.7744 -2.0241 5.5393 -2.4787 4.1901 2.2676 0.0385 -1.1015 -1.6623 2.7165 1.5051 0.9379 -1.9205 1.9379 1.3573 -0.5253 -0.7517 -2.8450 1.8228 -2.0944 3.0655 -2.9352 -3.1331 1.9979 -3.1350 0.5814 1.4293 1.5444 -0.0621 1.8180 -3.6657 -2.8682 -4.0828 1.3523 1.7580 -3.0540 1.4661 -5.1921 -4.3846 0.7357
-2.7836 2.7564 -6.9283 -0.9397 4.3547 -7.2173 -1.9492 -7.8034 4.1376 -4.3391 -7.7561 3.5911 -3.3050 -5.7594 4.5714 -3.3923 -2.3188 1.4748 1.9528 1.5920 -1.4207 -0.5613 7.0197 -4.4993 -2.1944 6.5055 -2.9934 -0.8664 1.3846 2.6351 1.3859 4.4458 -2.6638 -0.8460 -5.3948 2.7479 4.8992 2.9185 4.8619 5.3947 2.4408 3.5122 3.4351 3.3067 4.8708 4.6474 3.0761 2.3589 2.6526 2.5429 3.8267 -1.6394 -1.0484 0.4967 -0.8466 -0.8469 1.7713 -2.1494 4.2107 -5.0445 2.7403 1.7754 1.4678 0.1775 3.1509 -1.0243 -0.8203 -3.8815 -0.7158 0.5965 0.8248 0.9145 -2.2396 -4.7366 1.0227 -0.8688 3.9861 -2.9821 -2.8032 -6.5015 2.2920 3.2506 -2.6425 -1.1875 2.9229 -3.8435 -0.4407 2.2687 -1.8885 -1.7131 1.6373 -4.2004 -0.2656 0.8827 -2.2821 -1.5387 -1.6289 3.4375 -6.2349 3.1479 2.8627 2.4314 -2.3952 -2.3575 0.4672 1.4976 2.5975 -0.5282 1.3706 2.0442 0.8823 -1.4855 -3.5698 0.6138 -1.0170 4.7484 -4.1984 -1.3479 6.1606 -3.8038 -0.3952 0.5819 1.8373 0.3345 3.9262 -2.3051 -1.8795 -5.5138 2.0994 0.5744 -3.3771 -0.8190 -3.0758 -6.9279 3.6395
-3.8449 8.2612 -3.0147 -4.2891 6.0413 -2.0381 -0.2191 -7.4249 1.6007 -2.4453 -7.7329 0.6208 -2.2044 -7.7985 3.0619 1.1342 -1.4792 1.5214 -1.1086 1.3838 -2.3222 0.7861 7.1004 -3.8129 0.2586 8.3005 -1.9549 -1.0817 -1.6390 -2.7688 -0.2794 4.1235 -0.4897 -0.6220 -5.2935 3.6148 6.0365 0.5156 -4.6115 5.8865 0.2753 -3.1240 4.7246 0.7713 -5.3240 4.6305 -0.4998 -2.7859 3.6317 1.2017 -4.3709 -1.0957 -1.2778 0.5873 -0.7158 -2.2686 -0.4927 -2.1488 6.4789 -3.1898 2.5470 0.6992 -2.1961 0.7330 2.8806 -2.2882 -1.4279 -1.9438 3.9221 0.7942 -0.8454 -1.6510 -1.3168 -3.6279 2.1687 -0.3478 4.9408 -2.6669 -1.9829 -5.7408 1.8178 0.0724 -2.6305 7.8727 -1.3163 -2.8866 7.5361 0.9224 -2.1818 6.9319 -1.7515 -2.6891 6.2792 0.4458 -1.9423 5.5816 -3.2270 7.0750 -2.3177 3.3642 0.1318 -3.3333 -0.2435 -1.4193 1.8300 0.2141 1.5356 -1.8186 1.0694 0.3911 -2.3553 -0.6128 -2.5321 2.7896 -0.9043 6.2354 -2.3696 0.1039 7.3137 -2.6627 -0.3866 -1.5449 -1.7629 -0.0256 4.0285 -1.6846 -1.2300 -4.9261 2.6155 -0.8336 -2.2095 5.2591 -1.6935 -7.1508 1.7956
0.5586 7.5891 0.4729 -1.2849 8.3105 -0.9895 -1.5243 -7.0403 1.7620 -0.8003 -6.1457 -0.4412 -3.1741 -6.3039 0.0973 1.8423 -0.8753 3.0565 -2.3987 0.9225 -3.9290 -0.5259 6.3705 -4.8559 0.8304 4.6785 -4.1563 -2.2748 -1.5223 0.2601 -3.0957 4.2123 -3.1936 0.3851 -4.2435 1.1268 4.3374 0.1845 -4.3864 3.4072 1.3763 -4.4757 4.0072 -0.6802 -3.1874 1.9614 0.9313 -4.5009 2.5555 -1.1108 -3.2045 -0.0459 -0.6130 1.6741 0.0256 -0.8336 0.1787 0.2385 6.4634 -1.6886 0.2085 -0.3645 -3.3614 -2.1518 2.3429 -2.0294 0.9308 -3.3328 4.2420 -1.4973 -0.5899 -1.6811 -0.9626 -3.2802 2.7432 -1.0710 4.4526 -2.0779 -1.8605 -4.6949 1.2319 1.6497 -2.1735 8.2960 0.4469 -2.9039 7.9379 2.5265 -1.8116 7.3430 0.1979 -3.2066 6.6504 2.2724 -2.1650 5.9591 -0.4702 7.1253 -0.5290 1.6408 0.0939 -3.2806 0.8319 -1.6156 2.3898 -1.4396 1.4689 -3.0376 -0.6460 0.3685 -2.3513 0.0375 -2.4470 3.3923 -0.7229 5.7474 -2.6105 -0.0345 5.5109 -3.9281 -1.3631 -0.9999 -0.3772 -2.1792 3.7603 -2.5158 -0.7044 -4.1183 1.6768 1.1432 -2.8122 5.6181 -1.8079 -6.0252 0.6801
-3.7060 5.8549 -1.3521 -4.7257 5.0391 -3.4406 -4.5240 -6.6088 2.2021 -5.3261 -5.3870 0.1874 -6.2911 -4.9312 2.3999 -1.3441 -1.8070 4.4379 1.8465 0.1535 -2.0704 -1.0088 3.7869 -5.9269 0.4959 4.6339 -4.4385 1.2730 2.0148 2.5127 -1.1885 0.9589 -3.4898 -2.2399 -5.3586 1.1990 4.2259 6.2813 -0.9192 5.2377 5.3585 -1.5601 3.8601 5.8424 0.4829 4.7882 3.9131 -1.5873 3.7446 4.3397 0.6415 -0.1675 -0.7968 2.6251 1.2786 -0.3670 2.7398 -2.2640 5.0983 -3.1947 3.4860 2.1382 -0.4806 -0.1382 1.2757 -1.3644 0.2483 -3.4553 1.4665 1.9751 0.6893 0.7346 -2.0812 -3.2429 2.1155 -1.0129 3.1017 -2.6007 -4.1013 -4.1986 1.8948 3.5594 -6.0983 1.9950 3.5277 -4.8065 2.6563 2.5077 -6.5069 1.2637 2.4494 -4.0132 2.5310 1.3476 -5.6460 1.1182 -3.5742 4.8635 -2.4819 3.6064 3.6286 -0.6865 -0.3701 -2.0546 3.4407 1.3584 1.3800 -1.5549 2.0464 1.7398 -0.2516 -0.7257 -3.2839 2.6171 -1.6629 3.7995 -3.6837 -0.5893 4.1280 -4.6825 1.4810 0.9193 2.0014 -0.8332 1.7352 -2.6091 -2.7607 -4.3722 1.7081 1.3114 -4.4534 1.7410 -5.0198 -5.2859 1.6633
0.7373 8.2871 -4.6544 0.7690 8.6101 -2.2142 0.6658 -8.7616 3.7214 -1.4892 -8.9928 4.8685 -0.0953 -7.0315 5.3377 -1.6826 -4.1627 -0.4515 -0.7793 1.1757 -1.7103 -3.5743 5.4680 -2.2680 -3.2355 7.3876 -1.1016 0.3906 -1.6954 -2.3991 0.8741 4.7422 -1.1979 0.5358 -6.0576 2.4732 5.1577 3.5212 -5.2606 5.6762 2.2412 -4.6404 4.2822 4.3192 -4.3232 4.9966 1.8676 -3.3403 3.1316 3.4957 -3.7914 -0.6074 -2.2196 0.3483 0.8339 -2.0066 -0.0575 -1.0457 7.2828 -3.2805 2.9026 1.7608 -2.0422 0.2574 3.0108 -2.7455 -0.8319 -3.2787 3.0914 1.6937 -0.1503 -1.2485 -1.6614 -5.4010 2.1529 -1.0308 4.9702 -2.5127 -1.2227 -7.3480 3.1852 -3.2650 -2.7421 6.5755 -2.4352 -3.9223 6.4171 -3.2939 -1.8038 5.6128 -1.6914 -4.0725 5.3079 -2.4907 -1.9684 4.4125 0.4208 7.6487 -3.3247 3.4981 2.0772 -3.3970 -0.8432 -3.6943 0.5968 0.4415 1.9023 -1.7343 1.5957 0.9912 -2.1402 -1.5220 -3.9717 1.9283 -1.3442 6.3270 -2.1458 -2.7974 6.4606 -1.7717 0.9149 -1.2827 -1.3706 0.0892 4.3225 -2.0406 -0.6681 -6.2357 2.6177 -1.7341 -3.0690 4.2563 -0.5234 -8.0013 4.2611
-3.4831 5.3535 -3.2223 -4.3558 4.1535 -5.1829 -2.3403 -7.4272 4.1771 -4.6936 -6.7292 4.2035 -2.9878 -5.1823 5.0480 -3.3970 -1.6971 1.5093 2.2168 1.6564 -1.6297 -0.3125 1.4473 -4.5574 0.8581 3.1142 -5.5844 -0.8221 2.1091 2.2326 1.8644 5.2183 -2.1748 -1.0152 -5.0024 2.8402 5.0603 1.8481 4.1589 5.5456 1.9738 2.7303 3.5485 1.8156 4.2338 4.9255 3.1744 2.0416 2.9342 3.0115 3.5341 -1.5754 -0.6284 0.3959 -0.9335 -0.2269 1.7076 -1.9241 4.2646 -4.8014 2.8938 2.0007 1.2542 0.5420 3.3512 -1.4346 -1.1132 -3.6243 -0.6788 0.6886 1.2012 0.7167 -2.4554 -4.2106 1.2126 -0.0133 4.6639 -3.3751 -3.1844 -5.7440 2.6699 2.9573 -2.7260 -1.6448 2.6287 -3.8619 -0.8018 1.9809 -1.9241 -2.1049 1.3476 -4.1127 -0.4764 0.5972 -2.2048 -1.7683 -3.2742 4.1659 -4.1310 3.4104 3.1419 2.1002 -2.4298 -1.8736 0.4897 1.7948 2.7528 -0.8363 1.5731 2.3371 0.6061 -1.6211 -3.1524 0.6743 -0.8573 3.6313 -3.9356 0.0026 2.7457 -4.7936 -0.3754 1.1636 1.5904 0.8929 4.4877 -2.3560 -2.1197 -4.9689 2.3092 0.2930 -3.2375 -0.9616 -3.2722 -6.2491 4.0157
0.2348 8.4500 -4.0768 0.8743 7.2184 -2.0482 0.6044 -7.9590 4.6707 -0.4191 -7.0283 6.7332 1.9521 -6.6345 6.2259 1.4626 -4.4346 0.9137 1.5955 1.5669 -4.0439 -1.8776 4.5627 -0.8152 -3.4811 4.9123 -2.3989 0.7517 0.6512 0.8275 -1.1985 2.2271 -5.2481 -1.4063 -6.3002 3.6152 5.4395 4.4792 1.0948 5.0379 5.0940 -0.2287 4.2859 3.6997 1.6885 4.5740 4.0265 -1.1963 3.8154 2.6251 0.7319 0.6839 -2.1852 1.0331 0.5489 -1.4739 -0.2942 -1.1177 6.5252 -3.3630 3.1158 2.0834 -1.5709 -0.4386 2.2853 -2.9858 -1.9369 -3.1842 1.9076 1.3401 0.4493 -1.4118 -0.2205 -4.3713 3.1365 -1.3287 4.2307 -4.1327 0.2575 -5.5266 4.9953 -5.4443 -4.1138 -0.3497 -5.2499 -4.6576 0.9822 -4.4782 -3.3746 -0.9229 -4.1145 -4.4003 1.6561 -3.2593 -3.0816 -0.1893 0.2830 7.0862 -3.4313 3.4382 3.2073 -0.6161 0.2945 -3.6351 0.8438 1.0745 2.3408 -2.9747 1.6242 1.8477 -1.6466 -0.7601 -4.1361 1.8169 -1.1206 5.0639 -2.9686 -2.3059 4.8426 -2.0714 0.8924 -0.0157 -0.1913 -1.0012 2.9002 -4.2381 -0.5188 -5.4951 3.8736 -3.0780 -3.5841 1.0456 0.5746 -6.7841 5.6224
-0.1344 8.3026 -0.6055 -2.5200 7.7543 -0.3652 -3.5931 -4.7251 1.4008 -2.4119 -6.7554 0.5741 -2.8013 -4.8413 -0.9131 2.2083 -1.1854 4.0004 -1.3050 0.2138 -2.4603 -1.2602 5.1241 -4.6368 -3.4882 5.3864 -4.2504 2.9522 0.9959 -0.1253 -2.9855 2.9526 -1.4491 -1.3055 -5.1726 3.0642 4.0052 -0.5450 -5.8923 3.1642 0.4351 -6.6774 4.4818 0.0264 -4.5744 1.9384 0.8546 -5.8964 3.6866 1.2227 -4.0953 1.3770 -1.0253 1.8026 2.3164 -1.1847 0.6291 -1.1809 6.7597 -2.2096 1.4804 0.1638 -3.5705 -0.7513 2.1448 -1.1673 1.0611 -3.7541 4.4943 1.2209 -0.1363 -1.1891 0.3111 -3.7660 2.1971 -1.1880 4.3241 -1.9981 -1.2043 -4.6788 0.8222 -0.7253 -2.8436 8.2759 -1.4595 -3.5890 7.2696 0.5132 -2.3928 8.0095 -0.9019 -3.8305 6.0696 1.1212 -2.6690 6.7204 -1.1687 7.2159 -0.7691 2.2133 1.1586 -4.4385 1.7850 -1.9784 2.9021 -0.3946 1.2981 -2.3700 1.0350 0.7977 -2.2731 0.6365 -2.8931 3.3138 -1.9607 5.4765 -2.3908 -2.3379 5.3233 -3.8386 2.2130 0.0251 -0.2474 -1.7815 3.1630 -1.5515 -0.8060 -4.5662 2.1234 0.4346 -3.3384 5.7773 -2.4901 -5.2479 0.5089
-1.7868 5.8780 -4.2479 -1.3951 5.3951 -1.8705 -5.5234 -2.7601 -0.5151 -5.1144 -5.1297 -0.9966 -3.4642 -3.4698 -1.7269 -2.2675 -2.3583 4.3321 2.1738 -0.5146 -0.9489 -2.7827 1.9242 -0.6524 -3.5481 0.9749 -2.5796 -0.5803 2.3742 2.0800 0.6308 -0.1553 -3.8355 -2.9306 -1.9001 0.7429 6.0807 3.1891 -0.5557 5.0175 2.6274 -1.4752 5.6504 3.1098 0.8934 3.6862 3.3179 -1.2577 4.3181 3.8016 1.1083 -1.4478 -0.5760 2.9882 -0.3016 0.3497 3.3256 -2.1706 3.5951 -3.4004 2.8776 1.8508 0.6036 0.0751 0.3988 -1.5742 0.1157 -2.5113 1.4131 0.8577 0.7279 1.2899 -1.9867 -3.6695 1.9028 -0.9184 1.5080 -3.4762 -3.8104 -4.0143 0.6368 4.2945 -3.2315 1.8925 3.5816 -2.3737 2.8211 3.6209 -3.8975 0.9377 2.2510 -2.2205 2.7071 2.1868 -3.7138 0.8005 -1.3116 4.8318 -3.2689 3.2381 3.2604 0.1912 -1.1673 -1.9564 3.5354 1.4714 0.7102 -1.0930 1.4626 1.4845 0.2161 -0.8418 -3.0003 2.4781 -1.6032 2.4388 -2.6049 -2.7546 1.6918 -1.9888 -0.0505 1.2721 2.1697 -0.0071 0.5606 -3.0666 -2.8977 -3.0863 1.0506 1.5246 -2.9137 1.6553 -4.4527 -3.8200 -0.6369
-5.4374 5.0555 -1.8562 -4.6843 4.5619 -4.1419 -4.7886 -2.4957 2.2739 -5.6673 -1.6825 0.1407 -4.4192 -0.1297 1.5710 0.3983 -5.3093 -0.2263 0.1986 0.3801 -3.1429 -1.0526 5.9384 -0.2782 -2.9431 5.3963 0.8638 2.0294 -1.7360 -4.2351 -1.6021 1.4941 -0.4900 -1.9773 -1.8261 2.2487 5.5619 0.1299 2.0020 4.6792 -0.9620 1.4405 5.1785 1.4712 1.4167 4.7861 -1.0040 -0.0690 5.2755 1.4556 -0.0953 0.5098 -3.5510 -1.8257 1.7923 -3.4984 -2.6265 -3.0166 4.9016 -2.3575 2.9867 0.6351 -0.6811 0.5738 1.9669 -1.4196 1.0098 -1.9778 1.0862 2.3926 -1.3006 -1.9827 -1.1950 -2.6202 0.2211 -1.1846 3.5418 -1.5127 -3.3273 -1.9420 0.3914 1.9960 -1.7768 5.2552 1.5443 -0.6050 4.5274 2.1187 -2.9555 4.6198 1.2253 -0.7019 3.2239 1.7917 -3.0566 3.2081 -4.3862 4.3489 -2.6779 4.4716 0.3322 -0.7177 0.7925 -3.9582 -0.3949 0.7692 0.5252 -1.8471 2.2463 0.1412 -1.9165 0.0948 -3.1104 0.6571 -2.4217 4.1949 -1.1590 -2.1789 5.2122 -0.0746 2.0616 -2.0862 -3.0608 -0.8615 2.2700 -1.0834 -2.1548 -2.1181 1.0712 1.3299 -1.9825 2.5412 -4.5162 -1.5665 1.1127
1.0011 7.9650 0.4321 -0.5137 9.0026 -1.2059 -1.4385 -6.9488 0.4569 -3.0412 -7.2020 2.3477 -1.2691 -8.8480 2.0022 2.1515 -1.5275 2.7110 -2.1138 0.8170 -2.8092 -1.2570 4.7591 -4.1742 -0.4336 6.8671 -4.2818 2.1012 -0.4570 -0.3897 -2.8456 3.9367 -1.4899 -1.8689 -4.7098 2.9163 3.5833 1.2819 -6.4167 2.1102 1.4243 -6.7118 3.8837 0.0338 -5.6177 1.2997 1.5242 -5.4400 2.7203 -0.4687 -4.7911 1.3802 -2.8944 0.9044 0.3567 -1.8476 0.5190 0.3671 6.7218 -1.5996 0.5748 -0.0275 -3.6879 -1.1759 2.2559 -1.1516 0.9703 -3.0839 4.7437 0.0057 -0.4923 -1.3894 0.4353 -4.7552 3.0834 -0.5932 4.5112 -1.6127 -0.6927 -6.6763 2.7580 -1.5316 -0.3071 6.8405 -0.5027 0.1600 5.9297 -1.7325 -1.6261 7.0085 0.2523 -0.7263 5.2562 -0.9139 -2.5835 6.2836 -0.1105 7.7018 -0.5548 1.7825 0.6234 -4.3199 1.7503 -2.8451 2.3745 -0.9343 1.5207 -2.4524 0.2475 0.5716 -2.3391 0.6291 -3.3300 3.2823 -0.7717 5.8582 -2.1044 -0.7664 5.8932 -3.6180 0.9483 -0.8694 -0.4565 -1.6548 3.6477 -1.4345 -0.8049 -5.3180 2.8836 0.0245 -2.1541 5.4199 -1.6093 -7.3785 1.8954
-0.6397 5.2945 -7.6257 1.4312 5.2561 -6.3308 -3.2708 -3.0043 3.2744 -1.5747 -2.8470 5.0833 -3.2328 -4.6406 5.1159 1.2367 -4.4985 -1.6777 1.7050 2.6708 0.5774 0.3767 7.9049 -3.5908 -1.5035 7.0586 -2.6108 -1.5611 -0.6324 -1.2076 1.5363 5.1161 -1.5014 0.2596 -3.3392 3.1037 -4.1549 3.4556 3.7341 -3.4636 4.2472 2.6445 -4.2690 1.9945 3.3542 -2.1092 3.6559 2.3182 -2.9155 1.4045 3.0190 -0.5051 -3.1840 -0.6798 0.3794 -1.9566 -0.6731 -0.8234 5.4039 -5.1777 -0.8292 1.6348 1.7447 0.6925 2.8675 -1.5647 1.7485 -6.0307 0.6584 0.1845 0.3031 0.0077 -0.2411 -5.0581 1.6468 -0.2032 4.5718 -2.9514 -1.5529 -4.7059 3.4545 5.9703 -5.3169 0.3903 5.2383 -5.0101 1.6060 5.3212 -5.8169 -0.6762 3.9080 -5.2029 1.6605 3.8873 -6.0433 -0.6094 -0.0196 4.8339 -6.3285 -2.2187 2.1947 1.9298 0.2565 -4.4925 -0.6568 0.4484 2.7582 -0.0758 -0.4427 1.5771 0.2832 0.8455 -4.8056 0.7095 -0.0246 5.6317 -3.9140 -0.4959 6.9111 -3.2851 -0.4672 -0.7138 -0.6589 0.7418 4.3110 -1.9760 -0.4716 -4.2568 2.7482 3.1978 -5.7160 0.5003 -2.3757 -3.7855 4.2078
-3.6431 3.5931 -7.3788 -2.8999 1.7799 -5.8848 -3.3564 -4.2162 2.9814 -4.5302 -2.0909 2.6645 -2.2467 -2.0454 3.5401 2.8644 -3.6284 1.0359 0.2409 1.2374 -1.3662 -1.2187 6.8296 -4.2118 -3.4647 6.7037 -4.5310 3.3478 0.5636 1.2048 -2.3680 3.2019 -1.7263 -1.4097 -3.3177 -0.4768 4.6069 5.2603 3.5466 3.2190 5.8600 3.4528 4.7711 3.9403 2.8258 2.1013 4.8533 3.2800 3.7789 3.8082 1.6947 1.3369 -1.8400 1.1779 1.6918 -0.8213 2.2342 -2.0207 4.0695 -5.5786 1.3208 3.7472 1.1823 -0.0108 3.5980 -1.3882 0.8373 -5.4858 2.2042 1.1550 1.3237 1.3918 -0.7378 -3.7383 1.6913 -1.1297 4.3317 -3.3350 -2.7170 -2.6201 1.2310 1.2095 -9.2611 0.2209 0.5131 -9.1357 1.4880 1.7111 -8.1688 -0.3822 0.3680 -7.9269 2.0597 1.5859 -6.8693 0.2532 -3.2278 3.2499 -5.9699 2.3799 3.7704 2.2611 1.6650 -3.2243 1.6833 0.0692 2.3640 -0.5132 1.2461 2.4173 0.4488 0.5800 -4.2429 1.3714 -2.2286 4.6644 -4.2053 -2.3887 6.1569 -4.3256 2.1788 0.4125 1.5429 -1.3124 3.6672 -2.1404 -1.6093 -3.2598 0.7349 0.9209 -6.7450 1.4168 -3.1794 -2.7661 2.5937
-1.5536 6.8997 1.6491 -3.4868 6.4598 0.1999 -1.7872 -8.4841 2.3664 -4.1723 -7.9224 2.1844 -2.9250 -7.1931 4.1670 0.2585 -3.6072 0.3211 -0.1568 0.0381 -3.2562 -0.4788 5.9999 -3.7981 -2.6596 6.5485 -3.4684 3.2970 0.4829 0.2793 -1.7752 2.7235 -3.1802 -0.5572 -5.7934 3.0212 6.4043 1.4458 -5.3022 5.0999 1.5934 -6.0562 6.2108 1.7207 -3.8259 4.0219 0.7109 -5.4646 5.1496 0.8105 -3.2434 0.9412 -1.6095 1.4020 2.2986 -1.6461 0.7289 -1.1747 6.2423 -0.6920 2.8219 -0.0167 -3.4524 -0.0495 1.8745 -1.7383 -0.8202 -2.7876 3.8062 1.8500 -0.4473 -1.2836 -1.8066 -4.1135 2.0222 -0.5601 4.1896 -1.8535 -2.5338 -6.2332 1.9439 -1.9999 0.9531 5.5098 -0.7893 0.8378 4.7185 -2.7929 -0.1190 5.6864 -0.4704 -0.3363 4.1481 -2.4456 -1.3896 5.0700 -2.0672 6.0502 0.5131 3.8351 0.9701 -3.9824 0.3916 -3.0111 1.6064 0.6796 1.0964 -2.8135 2.0117 0.5598 -2.3113 -0.9652 -2.9654 2.3063 -1.5240 5.2579 -1.7833 -1.6338 5.9973 -3.0910 2.5318 -0.4041 -0.0861 -0.8968 2.9500 -2.3545 -1.5476 -5.4107 2.4071 -1.3438 -1.4877 4.3029 -2.8296 -7.4351 2.6771
-5.0684 0.8098 -3.4316 -3.3636 0.8738 -5.2021 -5.6341 -4.4973 2.7231 -5.1598 -6.3385 1.1162 -6.5422 -4.4399 0.4424 -1.7491 -1.8943 3.7895 2.1616 1.3604 -1.7298 -1.6701 5.1250 -5.0993 -2.7678 5.6420 -3.1685 1.2329 2.0684 3.1038 0.6001 3.1774 -3.3853 -2.5560 -5.4113 1.6680 6.8224 5.1384 1.8035 6.5228 5.1085 0.3202 5.5453 5.0191 2.6071 5.7651 3.8526 -0.0548 4.7983 3.7530 2.2445 -0.3329 -0.6527 2.3335 1.0808 -0.2907 2.7310 -3.6355 2.8006 -3.6469 3.8805 2.3560 0.4289 0.3426 2.7534 -1.0212 0.0298 -2.9989 0.6677 1.8784 1.1748 1.0563 -2.2840 -3.1308 1.3992 -1.5221 3.1362 -2.4533 -4.2209 -4.1081 0.7786 3.4882 -5.5070 0.5393 2.2119 -5.9704 0.0257 3.5738 -4.3108 1.1480 1.1174 -5.1965 0.1405 2.3979 -3.4642 1.2493 -3.6852 1.2964 -3.7889 4.4943 3.6959 0.7599 -0.6568 -2.0177 2.8958 1.8427 2.5269 -0.9827 2.3652 2.3908 0.4394 -0.9114 -3.0934 1.8525 -2.2206 3.3329 -3.7028 -2.2718 4.8187 -3.9230 1.3788 1.1233 2.3372 -0.1438 3.0413 -2.4188 -2.9951 -4.3117 1.3483 1.2122 -3.8936 0.7787 -5.3519 -4.8477 1.2808
-0.7764 8.8841 -0.4221 -2.6620 7.3156 -0.5320 -0.6215 -8.1000 1.8379 -2.9980 -7.9881 2.5692 -1.3306 -9.1081 3.9614 1.6274 -4.1100 1.9080 -0.7517 0.2141 -2.4281 -2.1724 5.8141 -4.1851 0.0374 5.2536 -4.2358 3.1484 0.6504 0.4807 -2.4100 2.9941 -1.5744 -2.3451 -5.2431 2.4089 5.4439 1.3267 -5.6497 4.4116 2.3819 -5.3144 5.7315 0.4585 -4.4436 3.1370 1.7449 -4.8037 4.4622 -0.1832 -3.9254 1.0212 -1.8316 1.5623 2.3908 -1.5607 0.9756 -0.4389 6.7507 -1.5936 2.1273 0.1463 -3.2264 -0.2991 2.0440 -0.9607 -0.6867 -2.3612 4.2081 1.5913 -0.3517 -0.9210 -0.4209 -4.6668 3.5527 -0.4978 4.3182 -1.6138 -1.2627 -6.7483 3.7600 -3.7005 0.5833 3.4503 -2.3273 0.7964 3.0318 -4.0510 -0.5704 4.0464 -1.4042 -0.1580 3.2444 -3.0523 -1.6000 4.2798 -1.1579 7.4233 -0.4447 3.4049 0.8553 -3.6059 1.0656 -2.9768 2.5570 0.1790 1.2497 -2.1561 1.5702 0.6846 -1.9285 -0.3350 -3.3011 3.0677 -1.1305 5.5124 -2.1166 -0.9850 5.4942 -3.6116 2.4136 -0.2862 0.1821 -1.2029 3.1491 -1.4210 -1.4058 -5.5377 3.1406 -1.7833 -1.4138 3.8725 -1.5542 -7.9487 3.0169
-0.0871 7.5747 -0.1148 -2.0745 6.3737 0.7117 0.0160 -5.3365 6.1351 -2.3065 -6.1148 6.1537 -1.8418 -3.7872 5.5412 0.7411 -5.8056 -0.5083 1.0356 2.0154 -3.3994 -1.8976 3.6214 -3.9663 -3.5628 4.9934 -3.2678 2.1314 -2.0264 -3.1064 -1.5179 2.0033 -0.4308 0.4073 -4.1558 3.5185 4.7439 4.6578 -0.8134 5.8677 3.6598 -0.9980 4.1354 5.0722 -2.1336 5.7213 2.7944 -2.2357 3.5582 3.8928 -2.8886 0.8099 -3.5033 -1.0302 2.0476 -2.6700 -0.7862 -1.2715 6.0049 -1.6082 3.5595 1.7545 -1.6109 0.8124 1.9446 -0.9839 -1.0605 -2.9662 1.1203 2.7378 -0.5080 -1.4585 -0.7895 -5.2993 1.9065 -0.5854 3.6919 -1.7322 -1.2463 -5.6520 4.0832 -5.1358 -1.8952 1.8587 -4.4661 -1.4889 0.6358 -4.4941 -2.6672 2.7524 -3.2059 -1.8900 0.3878 -3.1242 -3.0670 2.4995 -0.8604 6.2820 -0.1796 4.2807 2.5790 -2.6534 0.6357 -4.5154 0.0825 1.1882 1.1963 -2.2505 2.6311 0.7206 -2.2146 -0.7220 -4.4050 0.7599 -1.7229 4.5693 -1.7705 -2.4913 4.4366 -3.0628 2.2798 -1.7205 -1.9287 -0.5726 2.5143 -1.0195 -0.4697 -4.9516 3.2014 -2.5090 -2.7223 1.3535 -1.3254 -5.2047 5.4509
1.6815 8.0447 -4.0409 3.0374 6.3500 -2.8389 -1.8471 -3.0630 4.2159 -3.2669 -3.7466 2.2880 -3.3254 -1.4423 3.1127 3.1812 -4.1712 -0.5411 -0.0804 1.1567 1.0274 -1.3495 6.7189 -1.7397 -2.0100 5.1270 -3.2320 -0.8616 -1.2464 -3.1455 1.0346 4.0634 -0.1416 -0.5271 -4.2890 1.5047 -5.9111 0.1620 0.9069 -5.5784 1.6247 0.7258 -6.0683 -0.5270 -0.4269 -4.5816 1.9014 -0.3800 -4.7942 -0.4877 -1.2410 1.6076 -2.5361 -1.1586 0.2425 -2.8327 -1.7384 0.8859 5.6846 -3.9985 -2.7256 0.2620 -0.0856 0.5450 1.9348 -1.1364 2.5775 -4.0250 2.2776 -0.7274 -0.8447 -0.8612 0.8359 -2.4303 1.7457 0.4276 3.9440 -2.3825 -1.4029 -2.2269 1.9681 6.7135 -3.7717 3.3535 5.7441 -2.8489 3.9162 6.3209 -4.7017 2.4648 4.4522 -2.9171 3.5457 4.9245 -4.7878 2.0802 2.0923 6.5961 -3.9882 -3.8864 0.6861 -0.9499 1.9531 -3.5906 -0.1313 -0.6018 1.5360 -0.2360 -1.4272 0.4162 -0.8435 2.0869 -3.0008 1.2682 0.3346 5.3640 -2.6265 -1.1322 5.6901 -2.5954 -0.4922 -1.5543 -2.0171 0.6913 3.4281 -1.1326 -0.3719 -3.0980 1.7461 4.0295 -3.9126 2.5747 -2.4303 -2.6386 2.8871
-5.1525 2.1045 -5.6612 -4.3333 0.5985 -3.8906 -4.3393 -1.0284 1.0339 -4.6029 -1.5037 3.4238 -4.6317 -3.3716 1.8401 0.8515 -2.2971 -0.7361 0.1634 1.1303 -0.3657 -1.7495 5.4629 -4.6996 -3.9462 5.6020 -4.1396 3.6439 0.2117 -0.6097 -2.0721 3.3182 -0.7344 -2.1720 -2.9159 0.2110 6.4205 4.7308 2.2437 5.3648 4.5157 3.3080 5.8552 5.2908 0.9587 3.9481 4.5174 2.7742 4.7513 4.4279 0.3857 1.5311 -1.4402 1.3795 2.9645 -0.9634 1.3604 -2.9955 2.5730 -4.5512 2.4229 3.7767 0.9661 0.2798 3.3275 -1.2725 1.2434 -4.6789 1.9726 2.4787 1.3480 1.0489 -0.6413 -3.1423 1.9315 -1.3942 3.4690 -2.9508 -2.5947 -2.1029 2.3184 0.5456 -8.8403 1.2447 0.7184 -7.9203 0.1348 0.5583 -8.3799 2.5078 0.9030 -6.6092 0.3690 0.7515 -6.9631 2.7605 -4.3931 2.0303 -4.3600 3.8595 3.8106 1.4409 1.3573 -2.6774 0.5320 0.5806 2.4567 -0.0658 2.0721 2.4846 0.2508 0.4277 -3.7106 1.1433 -2.7134 3.6312 -3.5101 -2.8830 4.9955 -4.1253 3.0728 0.2432 0.4754 -1.1934 3.3657 -1.5887 -1.8420 -2.7516 1.3812 0.9034 -6.1065 1.7345 -4.0192 -2.0194 2.1295
-1.2074 7.4841 -0.3979 -3.1610 6.0127 -0.0915 -1.0616 -5.2121 6.2852 -3.1646 -6.3235 5.6977 -2.8753 -3.9581 5.1216 1.5545 -5.6268 0.1284 1.5427 2.1142 -2.9633 -1.3144 3.2378 -4.3877 -3.2524 4.4150 -4.2647 3.0759 -1.7023 -2.1674 -1.7124 1.7540 -0.8228 -0.1154 -4.0123 3.8200 6.1717 5.2647 -2.0712 6.0691 4.9542 -0.5964 4.8513 5.0924 -2.7909 5.5680 3.5479 -0.3467 3.8508 4.2325 -2.0464 1.4468 -3.3434 -0.4711 2.4336 -2.3291 0.0668 -1.6980 5.7407 -2.0808 3.4761 2.2858 -0.5518 0.6641 2.0261 -0.7023 -1.0109 -3.0718 1.0550 2.9872 -0.0900 -0.4962 -0.6444 -5.3318 1.9980 -0.6921 3.5508 -1.8936 -1.6388 -5.7280 3.9809 -5.2381 -2.6069 0.5808 -4.3140 -2.1232 -0.4300 -4.7714 -3.2691 1.6531 -2.9920 -2.3350 -0.2982 -3.3441 -3.4647 1.8107 -1.7464 6.0914 -0.6099 4.5095 3.0738 -1.3266 1.1072 -4.3605 0.5981 1.4921 1.3413 -1.7753 2.9225 1.0992 -1.3199 -0.3881 -4.4479 0.8694 -1.8824 4.2524 -2.2921 -2.2290 3.9968 -3.7373 2.8477 -1.3648 -1.0103 -0.7183 2.3915 -1.1512 -0.7510 -4.9308 3.3130 -2.4859 -3.0422 0.8649 -2.1614 -5.2849 5.2497
-0.4509 3.7721 -7.3714 -0.3198 5.8271 -6.0268 -0.1699 -4.4130 5.9603 0.7384 -6.6557 5.5865 -1.5488 -6.1630 4.8447 -1.1134 -1.6622 -0.3837 2.5045 2.0212 -1.7529 -3.6871 5.3484 -3.0432 -3.7969 3.0742 -3.1630 0.4346 0.8793 2.5940 -0.1136 4.8705 -1.5641 -1.0358 -3.4604 3.3758 4.6010 5.3409 4.0490 5.4125 5.0612 2.8097 3.7947 4.1096 4.3751 4.5123 4.8524 1.6157 2.8228 3.7635 3.2723 0.9901 -1.9267 0.6363 1.3890 -1.2024 1.9034 -1.7697 3.9352 -5.2998 3.3581 2.7182 1.0527 0.2423 2.5236 -1.1904 -2.0764 -4.2473 0.3446 1.8606 0.8444 0.7620 -0.0356 -4.5882 1.6171 -0.9676 3.3213 -3.0711 0.4059 -5.2057 3.7398 -3.2616 -5.9291 -3.4064 -2.9350 -4.5196 -3.2942 -3.1198 -6.7393 -2.3423 -2.5072 -4.0206 -2.1212 -2.6692 -6.1971 -1.0717 -0.4712 4.3262 -5.9679 3.2917 3.9940 1.8535 -0.4630 -2.3415 0.6803 1.6975 2.7250 -0.8236 1.9831 2.2743 0.5994 -0.6205 -3.8481 0.5113 -1.7738 4.2555 -3.8208 -3.1803 4.1188 -3.3106 1.1497 0.2787 1.7975 -0.2720 3.7156 -1.9455 -0.3101 -4.3520 2.9479 -2.3594 -4.8917 -0.9661 -0.1602 -5.5876 5.0079
4.1050 4.6415 0.7421 2.1213 6.0657 1.0567 -1.1707 -7.1304 4.1822 -2.6146 -5.5679 5.3952 -0.2048 -5.5512 5.8561 0.0515 -4.9048 -0.0979 -0.3660 1.9020 -4.9116 1.6643 5.9498 -4.3589 1.8572 7.7449 -2.9853 -2.4938 -2.1403 -2.7643 -0.9148 4.2775 -1.7940 0.9221 -5.5226 3.0530 -6.3452 2.8562 -1.1740 -5.0588 2.7845 -0.3797 -6.2777 2.1581 -2.5165 -3.8336 2.9176 -1.2562 -5.1103 1.2019 -2.6139 -0.5498 -2.6491 -0.6127 -0.2084 -2.2824 -2.0378 2.9472 5.5560 -1.2318 -2.6905 0.9234 -2.1542 0.0615 2.2302 -2.5827 2.4513 -3.5906 1.4791 -0.9949 -0.4455 -3.2930 0.1147 -3.4617 2.3751 1.3132 4.2314 -2.4501 -1.1212 -4.7400 3.7500 4.7605 -1.8004 4.6043 4.1447 -0.9747 3.5808 4.5683 -3.1312 4.6016 3.3846 -1.5387 2.6248 3.7529 -3.7400 3.5672 2.7622 5.0245 0.1717 -3.7972 1.9211 -2.3972 0.5204 -3.5704 -0.0827 -0.9901 1.9853 -3.6429 -1.8215 0.7409 -3.3826 1.0146 -3.1480 1.2851 1.6413 5.5579 -1.9955 1.7392 6.5357 -3.1403 -1.3806 -1.6307 -2.7062 0.0677 3.6863 -2.2278 0.0572 -4.6538 3.0617 3.1686 -2.9760 2.6263 -1.2469 -5.7421 4.7770

>  <OB_ATOM_TYPES> (1eedA1)
C.3 C.3 C.3 C.3 C.3 O.3 O.3 O.co2 O.co2 O.2 O.2 O.2 C.3 C.3 C.3 C.3 C.3 C.3 C.3 C.3 C.3 C.3 C.3 N.am N.am N.am O.3 C.ar C.ar C.ar C.ar C.ar C.3 C.3 C.3 C.3 C.3 C.3 C.3 C.2 C.2 C.2 C.2 C.ar C.3

>  <ENSEMBLE_RMSD> (1eedA1)
1.685 1.813 2.653 2.727 2.735 2.743 2.862 2.890 2.897 2.994 3.098 3.127 3.201 3.279 3.280 3.287 3.334 3.337 3.339 3.348 3.388 3.390 3.446 3.473 3.481 3.533 3.535 3.572 3.581 3.620 3.620 3.748 3.758 3.806 4.024 4.049 4.063 4.093 4.093 4.102 4.153 4.236 4.267 4.294 4.464 4.513 4.563 4.586 4.615 4.674

$$$$
