
 OpenBabel03071213D

 31 33  0  0  0  0  0  0  0  0999 V2000
   44.4900   20.2720   28.9630 N   0  0  0  0  0
   35.8870   17.9110   30.8760 O   0  0  0  0  0
   38.2460   16.9850   32.4270 O   0  0  0  0  0
   32.2420   23.6620   27.5090 O   0  0  0  0  0
   32.5160   21.7190   26.0410 O   0  0  0  0  0
   35.7310   20.7740   29.4270 O   0  0  0  0  0
   36.7540   20.0880   25.5800 O   0  0  0  0  0
   34.0030   23.5660   25.6870 O   0  0  0  0  0
   33.3220   20.0720   29.1990 O   0  0  0  0  0
   35.5660   18.3120   25.1220 O   0  0  0  0  0
   36.4360   17.3250   27.9960 C   0  0  0  0  0
   34.0980   22.1840   28.0700 N   0  0  0  0  0
   36.8920   18.5900   27.3590 O   0  0  0  0  0
   38.4750   16.4730   29.2690 O   0  0  0  0  0
   34.6430   19.7060   27.2770 O   0  0  0  0  0
   43.3720   18.3030   31.6780 C   0  0  0  0  0
   40.3900   18.3880   28.4440 C   0  0  0  0  0
   44.1560   19.1480   30.8790 N   0  0  0  0  0
   42.1060   17.7700   31.3930 N   0  0  0  0  0
   41.4930   19.0810   28.3100 N   0  0  0  0  0
   37.1800   18.3740   30.5170 C   0  0  0  0  0
   38.4920   17.8410   31.3500 C   0  0  0  0  0
   37.2550   17.2120   29.2500 C   0  0  0  0  0
   39.3060   16.8480   30.3600 C   0  0  0  0  0
   40.4730   17.7620   29.6000 N   0  0  0  0  0
   43.6140   19.5210   29.6350 C   0  0  0  0  0
   41.6550   18.1700   30.1670 C   0  0  0  0  0
   42.2650   18.9950   29.2300 C   0  0  0  0  0
   33.3140   22.8810   26.8020 P   0  0  0  0  0
   34.5330   20.6670   28.5610 P   0  0  0  0  0
   35.8210   19.1730   26.3250 P   0  0  0  0  0
  1 26  1  0  0  0
  2 21  1  0  0  0
  3 22  1  0  0  0
  4 29  1  0  0  0
  5 29  1  0  0  0
  6 30  1  0  0  0
  7 31  1  0  0  0
  8 29  2  0  0  0
  9 30  2  0  0  0
 10 31  2  0  0  0
 11 13  1  0  0  0
 11 23  1  0  0  0
 12 29  1  0  0  0
 12 30  1  0  0  0
 13 31  1  0  0  0
 14 23  1  0  0  0
 14 24  1  0  0  0
 15 30  1  0  0  0
 15 31  1  0  0  0
 16 18  2  0  0  0
 16 19  1  0  0  0
 17 20  2  0  0  0
 17 25  1  0  0  0
 18 26  1  0  0  0
 19 27  2  0  0  0
 20 28  1  0  0  0
 21 22  1  0  0  0
 21 23  1  0  0  0
 22 24  1  0  0  0
 24 25  1  0  0  0
 25 27  1  0  0  0
 26 28  2  0  0  0
 27 28  1  0  0  0
M  END
>  <MOLID> (1ei1A1)
1ei1A1

>  <SMILES_CANONICAL> (1ei1A1)
O[C@@H]1[C@@H](COP(=O)(OP(=O)(NP(=O)(O)O)O)O)O[C@H]([C@@H]1O)n1cnc2c1ncnc2N	

>  <FINGERPRINT> (1ei1A1)
0000000000000000000000000000101000000001110000000001100000000000100000000100100000010101000100001000100100001001000011100010000000000000001110001000000011100100000000000001000011000000000000000000000010000000110011000000000000000000000000000000100100001000000000000100000001001001000000000000000110001000000000001011000000001100000000001000000000001100010000000000000110010000000001000000000000101000000100000000000000000011100010100000000100100000100000000000100000010000100000000001000000011110110010100000110000000001001010100000000000110000000000000000000000000000000010100001100111000000000000000000000010000000001000000101100001000011100000000000100000000000001000000001011000000000000010000101000000100111100000000000000001000000000011000000000000000000000101000101000000000000000001000000000001000000000000000000100110000010100011100000000000000010000000000001000000000111100000000111001000000000000000000000001000101000000000000100011000000000000101001100000101101000000000000000000001001000001000001010000011000010

>  <MACCS166> (1ei1A1)
000000000000000000001000010010000000010000101001000011001000010010000101001111110011100011110111111001001100010100001011110111100111101111110110010101111011111010111000

>  <OB_MW> (1ei1A1)
506.012

>  <OB_logP> (1ei1A1)
-1.0839

>  <OB_PSA> (1ei1A1)
311.36

>  <OB_MR> (1ei1A1)
97.1214

>  <OB_ATOMIC_CHARGES> (1ei1A1)
-0.1054221013 -0.2175334301 -0.2155019906 -0.1239874923 -0.1239874923 -0.1252867643 -0.4370469238 -0.2331365683 -0.2351387607 -0.5169649212 0.1812728003 -0.0162740032 -0.3111288134 -0.3306209323 -0.2359854023 0.2015779758 0.1815938859 -0.2040311175 -0.2047803339 -0.2192839918 0.216058313 0.2337107855 0.1801263216 0.2409139585 -0.2693414029 0.191877425 0.1691641083 0.1517649033 0.4884444147 0.4669434562 0.2220040939

>  <MCT_HBD> (1ei1A1)
8

>  <MCT_HBA> (1ei1A1)
18

>  <ENSEMBLE_TOTAL> (1ei1A1)
50

>  <ENSEMBLE_COORDS> (1ei1A1)
5.6479 1.8216 0.2393 -1.1365 -3.0153 3.2632 1.8643 -2.5904 3.2943 -2.0569 4.0985 -2.3811 -4.0649 5.1427 -1.1990 -5.9409 0.6321 -1.9573 -1.0492 1.0012 -1.9113 -4.1919 4.3444 -3.4893 -4.5835 0.8524 0.0428 -1.4903 -1.4286 -2.2491 -2.1171 -1.8331 0.4968 -4.0864 2.5323 -1.7877 -1.9774 -0.4926 0.0370 0.2560 -1.8287 0.2535 -3.4783 0.0307 -1.9723 5.3474 -0.8694 2.5960 2.4972 -0.6612 -0.7144 5.8011 0.2231 2.0593 4.2435 -1.5864 2.1957 3.5421 0.1308 -0.8606 -0.3503 -2.6285 2.2506 1.0393 -2.4344 2.2490 -0.7992 -2.1661 1.0432 1.3924 -1.9470 1.0054 2.5304 -1.4682 0.4359 5.2633 0.6322 0.8468 3.7110 -1.1787 1.0930 4.3257 -0.1189 0.2508 -3.6518 3.9562 -2.2005 -4.5182 1.1089 -1.3835 -1.9689 -0.2596 -1.5465
5.3571 1.7792 0.0919 -2.4523 -2.6461 2.0668 -0.2789 -1.4124 3.8369 -4.8164 4.3092 -0.8166 -4.7915 2.9723 -2.9778 -0.6551 1.4441 -0.2910 -2.6492 -1.4413 -3.5167 -3.0415 4.5625 -2.4541 -2.7196 0.9562 0.8806 -0.7710 0.1219 -3.0904 -1.2265 -2.8366 -0.8277 -3.0255 2.3873 -1.1388 -0.7096 -2.0449 -1.8854 0.5087 -1.6881 0.4145 -2.4169 -0.1526 -1.2452 4.7293 -1.7338 -0.1136 2.0559 0.7114 2.3389 5.3776 -0.6187 -0.2577 3.5344 -1.9123 0.5315 3.1989 1.3092 2.0407 -1.2343 -2.2093 1.7119 -0.2469 -1.6221 2.5155 -0.7190 -2.2831 0.4416 0.7896 -1.2578 1.6875 1.9587 -0.5994 1.8749 4.8887 0.5075 0.3925 3.1324 -0.8882 1.2013 3.9113 0.3728 1.3055 -3.8235 3.5254 -1.8142 -2.2449 1.2391 -0.4619 -1.6200 -0.8511 -2.4416
5.4804 1.7504 -0.0848 -2.1215 -2.3648 2.7366 0.3594 -1.5269 4.2649 -2.7454 4.4237 -0.7035 -4.8592 4.4763 -2.1314 -3.4217 0.2482 0.3476 -1.0458 1.0314 -2.7258 -2.7248 3.7865 -3.0368 -5.3379 0.1524 -1.1611 -1.3346 -1.2572 -3.6028 -1.3483 -2.0697 -0.3617 -3.7512 2.1178 -1.4879 -0.8027 -1.0443 -1.1825 0.7120 -1.6420 0.7701 -3.1626 -0.3700 -2.1203 4.6887 -1.6861 -0.7009 2.7321 0.3238 2.6600 5.2110 -0.5122 -0.8943 3.6647 -1.9920 0.1783 3.7744 0.9736 2.1631 -0.9116 -2.0777 2.2410 0.2424 -1.7090 2.9457 -0.6064 -1.9749 0.9072 1.2330 -1.4525 2.0210 2.4869 -0.9251 2.0783 4.9847 0.4613 0.0615 3.4521 -1.0944 1.0830 4.2468 0.1697 1.1448 -3.5367 3.6070 -1.8473 -3.9669 0.6261 -1.1299 -1.5913 -0.4495 -2.4321
5.4531 1.5274 0.7797 -2.4998 -2.6780 2.0190 -0.0147 -2.5761 3.8084 -4.9623 2.4707 -3.3984 -6.0556 2.7585 -1.0805 -1.2528 3.8468 -1.3106 0.5376 0.9382 -2.8634 -5.1232 0.6309 -1.8186 -1.9987 2.8596 0.7982 -1.9168 0.6280 -3.0735 -1.5921 -1.6707 -0.8307 -3.4202 2.3374 -1.2260 -0.6769 -1.1032 -1.7684 0.4508 -1.5752 0.4594 -1.0565 1.3442 -0.8405 4.3630 -1.4335 -0.9297 2.4920 -0.4110 2.9042 5.0680 -0.3690 -0.6968 3.3474 -1.9423 -0.1534 3.5877 0.2835 2.6381 -1.2502 -2.3334 1.6782 -0.1232 -2.2692 2.5028 -0.8708 -1.9049 0.4312 0.9086 -1.7823 1.7263 2.1894 -1.4094 1.9545 4.8656 0.2898 0.5097 3.1661 -1.3325 0.9640 4.0419 -0.2400 1.4350 -4.8165 2.0515 -1.8359 -2.0264 2.6135 -0.6320 -0.8147 0.4505 -2.1503
6.1742 0.5165 0.1213 -2.6750 -0.7863 1.7718 -0.4034 0.1886 3.5636 -4.2896 2.6657 1.2743 -5.5280 0.7538 0.1401 -1.4976 3.1020 -2.2743 0.3754 0.1385 -3.4413 -5.8855 3.0658 -0.5169 -2.9930 1.7496 -3.6382 -1.7858 -1.0197 -3.8414 -1.3137 -2.1266 -0.7583 -3.6817 2.0303 -1.2207 -0.4689 -1.7218 -1.8306 0.5718 -1.4489 0.5912 -1.6798 0.5927 -1.9357 4.5754 -2.6824 0.4159 2.6106 0.8101 2.2003 5.4784 -1.8097 0.0842 3.3738 -2.4262 1.0380 3.8745 1.0194 1.8619 -1.3566 -0.9288 1.5816 -0.3106 -0.4794 2.4025 -0.7855 -1.5238 0.4829 0.8653 -0.7907 1.7571 2.1713 -0.5022 1.9911 5.3307 -0.5065 0.5431 3.2411 -1.2197 1.4770 4.3163 -0.1978 1.3688 -4.8135 2.1659 -0.1635 -2.5617 1.8922 -2.2575 -0.9288 -0.5206 -2.7882
6.4848 0.5844 0.9254 -2.3010 -1.8137 1.8163 0.1023 -2.1965 3.6702 -5.2058 2.0577 -3.8847 -6.8156 1.2331 -2.0466 -3.1406 4.1476 -0.5276 0.0925 2.6530 -1.8820 -4.8701 -0.0654 -2.7428 -3.7996 2.4068 1.0435 -1.8546 1.4979 -2.8765 -1.0985 -1.0045 -1.0128 -4.3239 1.9424 -1.3822 -0.3281 0.0983 -1.4994 0.8619 -1.3820 0.3305 -1.9223 1.9137 -0.4093 4.8820 -2.1478 -0.7522 2.9702 -0.5136 2.8276 5.7891 -1.2555 -0.5007 3.7217 -2.3807 -0.0563 4.2039 -0.0734 2.6237 -1.0017 -1.7452 1.5008 0.0962 -1.9168 2.3567 -0.4993 -1.4029 0.2704 1.2293 -1.6455 1.6168 2.5454 -1.4939 1.9127 5.6362 -0.4847 0.6428 3.5821 -1.6693 1.0035 4.6307 -0.7527 1.4969 -5.2500 1.3065 -2.4449 -3.3841 2.5748 -0.3343 -1.0331 1.5279 -1.6853
4.5065 2.2456 0.3842 -2.4777 -3.3005 2.1200 -0.2454 -2.2523 3.9230 -4.2193 4.2391 -2.3059 -5.1578 2.9248 -0.3169 -0.7323 2.4738 0.7116 0.1913 -0.0621 -3.2589 -4.7075 1.8775 -2.4676 -0.2567 2.7395 -1.6466 -2.2585 -0.0985 -2.8741 -1.7323 -2.4674 -0.7959 -2.6650 2.4564 -1.1567 -0.9365 -1.9616 -1.8574 0.2913 -1.9155 0.4501 -0.8595 0.5205 -0.9367 4.2845 -1.1474 -0.7668 1.8868 0.0755 2.6820 4.6224 0.1097 -0.7707 3.3553 -1.7589 0.0594 2.8071 0.9494 2.3175 -1.3049 -2.7611 1.7594 -0.2692 -2.2885 2.5809 -0.9661 -2.4407 0.4687 0.7110 -1.7884 1.7458 1.8741 -1.1105 1.9394 4.2039 0.8956 0.2886 2.9086 -1.0056 1.0061 3.4719 0.3466 1.2683 -4.1146 2.8253 -1.5409 -1.2137 2.0870 -0.7723 -0.9975 -0.4073 -2.2376
6.5072 0.3520 0.8309 -2.4304 -1.6783 1.9666 0.0071 -1.8900 3.7962 -6.7751 1.5624 -1.1610 -5.1344 -0.4059 -1.2646 -2.6619 4.0909 -2.0029 0.5026 2.0630 -2.5123 -5.5416 1.0055 -3.1885 -3.0223 3.4985 0.3374 -1.6689 1.1914 -3.3315 -1.3346 -0.9734 -0.9127 -4.1490 2.0017 -1.3687 -0.4366 -0.2430 -1.7350 0.6888 -1.1313 0.4212 -1.5914 2.0152 -0.9656 4.6472 -2.3506 -0.6265 2.9433 -0.3036 2.8423 5.6430 -1.5405 -0.4258 3.4575 -2.3826 0.0611 4.2201 -0.0190 2.6316 -1.1387 -1.5265 1.6418 -0.0175 -1.6372 2.4796 -0.6755 -1.2130 0.3869 1.0920 -1.3793 1.7080 2.4158 -1.2665 1.9753 5.5730 -0.6639 0.6492 3.4275 -1.6282 1.1035 4.5801 -0.7975 1.5439 -5.3481 1.1138 -1.7538 -2.9481 2.8858 -0.9729 -0.8312 1.2503 -2.1540
5.2299 1.8000 -0.0163 -2.0507 -2.5885 3.1236 0.6765 -2.0986 4.4033 -2.5405 4.6749 -1.9083 -3.8507 3.9007 0.1490 -4.6018 0.4892 -3.6533 0.1030 1.0005 -1.9750 -4.9468 4.4119 -1.9438 -4.1696 -0.1264 -1.3627 -0.3508 -1.4046 -2.4101 -1.7022 -1.7319 0.0734 -3.7147 2.2583 -1.9138 -1.4357 -0.4049 -0.3809 0.5322 -1.6852 0.9088 -2.2282 0.1980 -2.7857 4.2240 -1.4681 -1.1241 2.8093 -0.0719 2.7790 4.7685 -0.2887 -1.1765 3.4044 -1.9604 -0.1319 3.7358 0.6965 2.2327 -0.8943 -2.2882 2.5153 0.3705 -2.0883 3.0967 -0.7690 -1.9632 1.1884 1.2306 -1.7239 2.0800 2.4940 -1.2254 2.0441 4.6971 0.5145 -0.0446 3.3013 -1.2050 0.9076 4.0667 0.0603 1.0499 -3.7625 3.7326 -1.4521 -3.6672 0.7828 -2.3757 -0.9594 -0.1972 -1.8973
5.1602 1.9563 0.3904 -1.4453 -3.7309 3.0184 1.5187 -3.6887 3.7668 -3.9064 5.2456 -2.0958 -5.4912 4.0972 -3.7584 -4.9534 0.1311 -1.9238 -0.5202 1.8477 -0.4295 -3.0830 3.9825 -3.9993 -4.0887 1.3199 0.0212 -0.1941 -0.3929 -1.4526 -1.7569 -1.7013 0.6180 -4.0035 2.5786 -2.1841 -1.5929 -0.2980 0.6298 0.6147 -1.7365 0.9867 -2.4646 0.5722 -1.6497 3.7615 -0.6940 -1.5717 3.3990 -0.9519 2.7781 4.3907 0.4091 -1.3164 3.0966 -1.4898 -0.6866 4.2819 -0.0510 2.3631 -0.4423 -3.0978 2.3922 0.9226 -3.0787 2.7345 -0.5967 -2.2396 1.3354 1.5442 -2.2156 1.8537 2.8017 -1.6920 1.7451 4.6106 0.7307 0.0234 3.3347 -1.2279 0.5512 4.2659 -0.1463 0.9819 -4.1026 3.8999 -2.9704 -3.8998 1.2497 -1.4114 -1.1612 0.4123 -0.7403
5.0877 1.9310 -0.3934 -1.9489 -2.4291 3.3015 0.8573 -1.9410 4.4138 -4.1358 4.4437 -0.7587 -2.4007 4.2170 -2.6241 -4.7032 -0.1942 -0.8641 -0.5623 -1.6598 -2.4899 -1.9549 3.4408 -0.3728 -5.0186 0.5932 -3.1498 -0.6137 0.8197 -2.2635 -1.7779 -1.7363 0.2169 -3.5331 2.0372 -1.7167 -1.5496 -0.4571 -0.3573 0.4922 -1.5250 0.9340 -2.8188 -0.2973 -2.5964 4.0257 -1.3793 -1.2926 2.8807 0.1557 2.6451 4.5937 -0.2169 -1.4127 3.2416 -1.8087 -0.2470 3.7931 0.8903 2.0288 -0.8304 -2.1270 2.6280 0.4621 -1.9056 3.1331 -0.7794 -1.8591 1.2855 1.2502 -1.5135 2.0718 2.5042 -1.0056 1.9570 4.5789 0.6385 -0.3180 3.2399 -1.0272 0.7775 4.0408 0.2232 0.8408 -3.0243 3.4471 -1.3531 -4.0427 0.6262 -2.0805 -1.3540 -0.3808 -1.9431
5.7319 1.6146 0.2493 -1.3475 -3.7661 3.0110 1.6400 -3.7970 3.6003 -5.4283 4.1820 -3.8652 -2.9819 3.5188 -4.2864 -4.2623 1.7655 0.3991 -0.4199 -0.2811 -1.6210 -3.5963 5.0496 -2.4864 -5.3521 0.4963 -1.3818 -1.0312 1.8631 -0.5224 -1.7681 -1.6014 0.7703 -4.1506 2.6008 -2.1434 -1.5959 -0.1917 0.7391 0.6199 -1.5717 1.0648 -2.9146 0.4647 -1.3884 3.8256 -0.7734 -1.6150 3.4758 -0.9073 2.7432 4.6281 0.2172 -1.3812 3.0946 -1.4886 -0.7003 4.4167 -0.0883 2.3060 -0.3786 -3.0605 2.4121 0.9982 -3.0819 2.6708 -0.5722 -2.1225 1.4346 1.5827 -2.1448 1.8504 2.8358 -1.6454 1.7268 4.9129 0.5295 -0.0665 3.3809 -1.2409 0.5285 4.4014 -0.2334 0.9226 -4.0514 3.8084 -3.1017 -4.2232 1.3868 -1.1742 -1.4705 0.4984 -0.6949
5.4174 1.6559 0.1200 -1.7361 -3.0526 3.2111 1.1236 -2.9699 4.2159 -3.9293 4.5588 -3.8146 -4.0818 4.8941 -1.2851 -4.2688 -0.0367 -3.1729 -0.2308 1.8545 -0.7064 -5.9442 4.0335 -2.5691 -4.1166 0.4027 -0.7901 0.0834 -0.4372 -1.5913 -1.7059 -1.5763 0.4076 -4.0768 2.4177 -2.2606 -1.5408 -0.1666 0.3108 0.6155 -1.6872 0.9784 -2.0759 0.6647 -2.1122 4.0959 -1.3125 -1.3888 3.2140 -0.5968 2.8366 4.7216 -0.1783 -1.2979 3.2781 -1.8759 -0.4357 4.1716 0.1762 2.3462 -0.6442 -2.6501 2.5472 0.6839 -2.6240 2.9988 -0.6544 -2.0332 1.3254 1.4410 -2.0159 2.0188 2.7178 -1.5552 1.9400 4.8177 0.4123 -0.0455 3.3954 -1.3605 0.7399 4.3076 -0.2199 1.0265 -4.5052 3.8876 -2.4672 -3.6538 0.9463 -2.0512 -0.9199 0.4444 -1.0345
5.0450 2.2033 0.2882 -1.3171 -3.8630 3.0280 1.5982 -3.4387 3.8525 -2.2171 4.5160 -1.3738 -4.4782 5.0369 -2.4357 -4.5936 0.9264 -0.1763 -0.6215 -1.0561 -2.0292 -2.6464 4.0795 -3.7218 -5.3255 0.5700 -2.4680 -1.0197 1.1919 -1.0487 -1.7576 -2.1258 0.4317 -3.7502 2.5175 -2.0835 -1.8877 -0.7234 0.2671 0.5319 -1.6482 1.0087 -3.0119 0.0111 -1.9530 3.7530 -0.6077 -1.5211 3.1730 -0.4876 2.8181 4.4218 0.4857 -1.3104 3.0837 -1.3595 -0.5846 4.0557 0.3951 2.3730 -0.3896 -3.0937 2.4410 0.9469 -2.8909 2.8185 -0.6034 -2.3372 1.3179 1.4817 -1.9776 1.9363 2.6774 -1.3493 1.8329 4.5438 0.9391 -0.0036 3.2633 -0.9806 0.6330 4.1427 0.1540 1.0099 -3.2941 3.9500 -2.4308 -4.1924 1.0829 -1.7273 -1.6118 -0.1199 -1.1891
5.5341 1.8263 0.5587 -1.3230 -3.9548 2.8108 1.6372 -3.8757 3.5634 -2.5051 4.2997 -3.2904 -4.6933 5.1348 -2.2965 -4.3328 1.4772 0.1764 -0.3141 -0.2258 -1.6727 -4.6387 3.8213 -4.3349 -5.2961 0.3546 -1.7511 -1.1414 1.8367 -0.5680 -1.7281 -1.7110 0.6096 -4.1279 2.5526 -2.2185 -1.6371 -0.2930 0.6109 0.6331 -1.6169 1.0507 -2.8688 0.3653 -1.5852 3.8792 -0.5840 -1.5155 3.3849 -0.9245 2.8166 4.6190 0.4363 -1.2036 3.2043 -1.4138 -0.6570 4.2999 -0.0368 2.4496 -0.3598 -3.1846 2.2979 1.0064 -3.1606 2.6276 -0.5600 -2.2163 1.3389 1.5905 -2.1870 1.8438 2.8378 -1.6550 1.7641 4.8464 0.6942 0.1384 3.4124 -1.1809 0.5949 4.3565 -0.1419 1.0685 -4.0344 3.8680 -3.0215 -4.2053 1.2456 -1.4047 -1.4760 0.4499 -0.8013
5.4362 1.3757 0.2567 -2.8336 -1.7809 2.0833 -0.4847 -1.3135 3.9947 -5.2159 3.6221 -0.5520 -4.1469 2.2632 1.3411 -1.5271 3.1870 -3.0113 -1.4642 -1.4108 -4.2898 -5.2626 1.2115 -0.5279 -0.5160 1.9584 -1.1484 0.4544 -0.0263 -3.4783 -1.6660 -1.6342 -0.8484 -3.0422 2.1653 -1.0666 -0.6224 -1.4856 -1.8057 0.2807 -1.3073 0.5352 -1.8202 0.6627 -2.7485 4.3077 -1.9822 -0.3671 2.2272 0.4141 2.6893 5.0349 -0.9163 -0.4681 3.2032 -2.1398 0.4442 3.3874 0.9233 2.3008 -1.5415 -1.6059 1.7833 -0.4679 -1.3712 2.6528 -1.0538 -1.5680 0.4970 0.6444 -1.2012 1.8490 1.9233 -0.8129 2.0833 4.8069 0.1390 0.4087 2.9859 -1.1608 1.2570 3.9024 0.0173 1.3806 -4.3445 2.2986 -0.2530 -1.7496 2.0250 -1.9030 -0.8356 -0.5464 -3.0888
5.8150 1.2931 0.3432 -1.5251 -3.8384 2.7247 1.4967 -4.2049 3.2288 -6.2312 2.9831 -3.8985 -3.8283 2.8948 -4.7752 -3.5485 3.0818 0.3606 -0.2641 2.1945 0.3739 -4.6778 4.8403 -3.5779 -4.5156 0.9949 -0.4568 -0.1407 0.1763 -1.0658 -1.7965 -1.3467 0.7741 -4.2067 2.7616 -2.2059 -1.6377 0.0576 0.9643 0.5877 -1.4906 1.1339 -2.2421 1.4727 -1.1623 3.6573 -0.7459 -1.6697 3.5721 -1.3435 2.6732 4.5716 0.1246 -1.3812 2.9695 -1.5297 -0.7878 4.5657 -0.5741 2.2466 -0.5059 -3.0987 2.2568 0.8783 -3.2658 2.4857 -0.6428 -2.0142 1.4194 1.5231 -2.2555 1.7939 2.8181 -1.8894 1.6309 4.9617 0.2669 -0.0611 3.3409 -1.4152 0.4374 4.4691 -0.5690 0.8659 -4.7163 3.3931 -3.5230 -3.6943 2.1059 -0.9067 -1.0533 0.9405 -0.2417
5.5927 1.8882 0.6309 -1.1891 -4.2099 2.5394 1.7094 -3.9051 3.4881 -2.4690 4.4649 -3.0050 -4.8363 5.1637 -2.3482 -5.5396 0.3449 -1.9094 -0.4396 -0.2640 -1.7525 -4.3886 3.9297 -4.4017 -4.4335 1.4681 -0.0601 -1.2624 1.7015 -0.4768 -1.6584 -1.9316 0.4021 -4.1516 2.6092 -2.2530 -1.7974 -0.5189 0.5028 0.6255 -1.5746 1.0740 -2.9853 0.3529 -1.6562 4.0951 -0.6917 -1.3710 3.2594 -0.6792 2.9342 4.8373 0.3338 -1.0760 3.3491 -1.4506 -0.4940 4.2002 0.1809 2.5707 -0.2781 -3.3035 2.1616 1.0496 -3.1625 2.5890 -0.5052 -2.3185 1.2342 1.5773 -2.0912 1.9076 2.7839 -1.4854 1.8970 4.9418 0.7179 0.2554 3.4531 -1.1090 0.7444 4.3623 -0.0285 1.2094 -3.9997 3.9513 -3.0060 -4.2946 1.2733 -1.4932 -1.6084 0.3438 -0.8374
5.8358 1.1920 0.8199 -1.8473 -3.5907 2.2793 1.0737 -4.2989 2.8713 -5.8245 3.9592 -3.6132 -5.9143 1.3971 -3.6213 -3.3833 3.8528 0.1823 0.1699 2.4008 0.5982 -4.0115 2.6093 -4.5045 -3.9286 1.4821 0.2060 0.0644 0.6232 -1.1289 -1.7472 -0.9771 0.4677 -4.1832 2.5779 -2.0362 -1.4216 0.3435 0.8846 0.5639 -1.4792 0.8263 -1.8864 2.1359 -0.9581 3.8657 -0.5681 -1.6020 3.3976 -1.6526 2.6150 4.7530 0.2537 -1.1380 3.0656 -1.4211 -0.8686 4.4380 -0.8681 2.3765 -0.7371 -2.9791 1.8388 0.6032 -3.3015 2.1084 -0.7240 -1.8558 1.0527 1.3798 -2.3468 1.4920 2.7050 -2.0592 1.4707 5.0162 0.2437 0.2265 3.3364 -1.4665 0.3777 4.4426 -0.6944 1.0039 -4.9260 2.6455 -3.3714 -3.4225 2.4989 -0.6826 -0.7532 1.3435 -0.1730
5.2810 1.7214 -0.4079 -2.5809 -1.7811 2.3979 -0.2994 -0.5300 3.9591 -0.9793 3.0157 -0.0077 -3.1530 2.7944 1.3404 -5.1715 0.4620 -1.7766 -1.6108 -2.0739 -3.9631 -2.9877 4.3033 -0.5508 -3.7253 1.3523 -3.4964 -0.6532 0.0676 -3.1900 -1.4387 -2.3654 -0.4992 -3.1130 1.9038 -1.1477 -0.6765 -1.8397 -1.5749 0.4899 -1.5058 0.6820 -2.8736 -0.5546 -2.2374 4.5347 -1.7744 -0.2446 2.2892 0.9156 2.3531 5.1072 -0.6827 -0.6429 3.4311 -1.8758 0.5591 3.3954 1.4526 1.8516 -1.3144 -1.6074 1.9947 -0.2573 -1.0407 2.7223 -0.8296 -1.8564 0.7362 0.8396 -0.9756 1.8900 2.0845 -0.4288 2.0014 4.7761 0.4964 0.0144 3.1483 -0.7965 1.1931 3.9571 0.4486 1.0772 -2.5821 2.9628 -0.1571 -3.6459 0.8497 -2.1360 -1.4419 -1.0576 -2.7406
5.3707 1.6427 -0.1238 -2.2998 -1.9944 3.0802 0.4393 -1.7438 4.3701 -1.8523 3.8239 -1.1538 -3.0277 2.6201 0.7546 -4.4836 0.9690 -4.0371 -0.1684 -1.4435 -2.5227 -4.2527 4.0564 -0.7777 -4.5160 -0.4229 -2.0450 -0.2191 1.0455 -2.3742 -1.8332 -1.3988 -0.0265 -3.4824 1.8474 -1.7201 -1.4798 -0.1569 -0.6097 0.3708 -1.3364 0.8755 -2.3382 -0.0598 -3.0552 3.9417 -1.4735 -1.1714 2.8062 0.0893 2.7445 4.6765 -0.4049 -1.2195 3.0887 -1.8507 -0.1653 3.8391 0.7108 2.2029 -1.1209 -1.7833 2.4731 0.1440 -1.6831 3.0647 -0.9465 -1.5455 1.1336 1.0426 -1.3845 2.0577 2.3502 -1.0189 2.0300 4.7051 0.4279 -0.1036 3.1406 -1.1083 0.8879 4.0776 0.0355 1.0190 -3.2165 3.0421 -0.7898 -3.7395 0.6385 -2.6509 -1.0165 -0.1400 -2.1478
5.8938 1.2176 -0.1169 -2.7113 -1.4905 2.1280 -0.4975 0.0486 3.5934 -3.7025 4.2698 0.1480 -1.5787 3.0299 0.8680 -4.5624 0.8441 -2.8982 -2.3953 -2.2844 -3.7599 -3.7925 2.1681 1.3586 -2.3393 1.7000 -3.4028 -0.5394 -0.6299 -3.5983 -1.4280 -2.5916 -0.5266 -3.0766 1.9648 -1.0135 -0.7443 -2.2298 -1.7205 0.4101 -1.3892 0.5034 -2.4731 -0.3209 -2.0487 4.6457 -2.0997 0.4125 2.1753 1.2640 1.7522 5.4742 -1.1629 0.0622 3.4117 -1.9399 0.9986 3.4000 1.6097 1.3832 -1.4416 -1.2935 1.7477 -0.4285 -0.5866 2.4145 -0.8940 -1.7814 0.5868 0.6918 -0.6431 1.6172 1.9324 -0.1113 1.7038 5.1341 0.1521 0.3480 3.0919 -0.7200 1.2556 4.0147 0.4179 1.0374 -3.0594 2.8014 0.2794 -3.0934 1.1274 -2.3070 -1.5178 -1.3409 -2.8060
4.9332 2.0929 0.0175 -1.4326 -3.6384 3.1985 1.4618 -3.2083 4.0556 -1.9554 4.3141 -2.0687 -4.4528 4.8214 -2.0713 -4.8131 0.4852 -0.9101 -1.7176 1.8667 0.1185 -3.2888 4.1479 -4.0887 -4.2748 0.0209 -3.2653 -0.1561 0.1438 -0.7770 -1.7836 -2.0663 0.4815 -3.6108 2.3269 -2.4023 -2.0208 -0.6702 0.6889 0.5455 -1.8373 0.9469 -2.4433 0.1566 -1.7235 3.7723 -0.8801 -1.5959 3.0547 -0.4096 2.7273 4.3981 0.2514 -1.4568 3.1168 -1.5920 -0.6025 3.8802 0.4949 2.2064 -0.4615 -3.0295 2.5188 0.8721 -2.8296 2.9116 -0.6307 -2.3925 1.3252 1.4492 -2.0524 1.9401 2.6130 -1.3790 1.8047 4.4780 0.8002 -0.1883 3.2110 -1.0851 0.5811 3.9991 0.1335 0.8724 -3.3645 3.8210 -2.6769 -3.8396 0.8220 -2.1381 -1.5391 0.3709 -0.4292
5.5124 1.5244 1.2697 -1.4574 -4.2132 2.1666 1.5443 -4.7017 2.6295 -6.2969 3.5026 -3.4732 -4.8042 1.5885 -4.2569 -4.5718 3.2947 0.4473 -0.8172 0.4610 -1.4482 -4.1192 3.9136 -4.4544 -2.4420 3.9569 -0.4871 -0.5232 2.0306 0.4656 -1.6657 -1.5085 0.5464 -4.1205 2.9912 -2.1057 -1.4511 -0.1915 1.0356 0.7095 -1.8248 0.7597 -2.8643 1.5578 -0.2633 3.8311 -0.1556 -1.4271 3.5997 -1.9352 2.5651 4.5751 0.7243 -0.8264 3.1664 -1.2050 -0.8411 4.5130 -0.9812 2.4617 -0.4147 -3.4941 1.7252 0.9603 -3.7081 1.9416 -0.5319 -2.3266 1.0123 1.6261 -2.6429 1.3717 2.9196 -2.2231 1.3746 4.8430 0.5551 0.5279 3.4539 -1.3915 0.4006 4.4560 -0.5777 1.1382 -4.7596 3.0180 -3.5129 -3.4833 2.9720 -0.6977 -1.3875 0.9899 -0.0452
5.6651 1.3736 0.5200 -1.8657 -2.9677 3.2411 1.0753 -3.4297 3.9299 -5.3921 2.4514 -0.2642 -6.3715 3.3193 -2.4487 -3.1776 1.3081 -4.5954 -0.2707 -1.1072 -1.7310 -4.7408 4.6076 -1.1802 -1.5261 2.6228 -3.3943 -0.0958 1.3352 -1.3573 -1.9238 -1.1408 0.7014 -3.8536 2.5462 -2.3747 -1.6284 0.1394 0.1689 0.4526 -1.1952 1.2722 -2.2130 0.5125 -2.3735 3.6654 -0.9081 -1.3861 3.4670 -1.0858 2.9817 4.5445 0.0182 -1.1522 2.8945 -1.5567 -0.4536 4.5509 -0.4726 2.5227 -0.7860 -2.4135 2.6734 0.5658 -2.6180 2.9918 -0.8220 -1.5761 1.5867 1.3097 -1.8376 2.1347 2.6429 -1.6191 1.9788 4.8944 0.2667 0.1708 3.2462 -1.3397 0.7663 4.4471 -0.5519 1.1403 -4.9973 3.2448 -1.6085 -2.7174 1.8344 -3.1410 -1.0395 0.2392 -1.3201
4.3495 2.3373 0.0884 -2.6274 -3.0092 2.6798 -0.0391 -2.2300 4.1186 -4.4498 1.5258 -1.0595 -4.0072 3.9486 -1.7393 0.6072 2.3520 -0.5706 -0.1258 -1.3346 -3.5857 -3.6019 3.1374 0.5249 -0.0960 2.2189 -2.8923 -2.3579 -0.4406 -2.9913 -2.2711 -2.0698 -0.3542 -1.9645 2.3005 -1.1925 -1.4351 -2.2166 -1.4967 -0.1842 -1.4734 0.6731 -0.4267 0.2305 -1.5396 3.5735 -0.9579 -1.1301 1.8912 0.2890 2.7207 4.1264 0.2210 -1.0862 2.6766 -1.4686 -0.2153 2.8440 1.0939 2.2702 -1.5274 -2.4427 2.1602 -0.3329 -2.0783 2.8182 -1.3980 -2.0696 0.8426 0.4617 -1.4625 1.8786 1.6552 -0.8302 1.9181 3.9217 1.0168 0.0325 2.5318 -0.7509 0.8502 3.2832 0.5094 1.0969 -3.4092 2.7459 -0.8557 -0.5400 1.8334 -1.5623 -1.1277 -0.9253 -2.4019
4.8284 2.2086 0.5552 -1.3612 -3.7826 3.2841 1.6076 -3.6522 3.8814 -2.3343 4.8114 -2.9489 -2.9866 4.3048 -0.5168 -3.2044 0.4644 -4.0061 -0.6486 -0.9974 -1.6369 -4.6463 4.7795 -2.2264 -5.1464 0.5454 -2.5284 -0.9733 1.3981 -1.0172 -1.8904 -1.6762 0.9572 -3.5939 2.5133 -2.3287 -1.6631 -0.2990 0.6682 0.5127 -1.7308 1.1148 -3.0334 0.0891 -1.5043 3.4041 -0.3191 -1.5741 3.3477 -0.9800 2.7505 3.9193 0.8226 -1.2407 2.8892 -1.2661 -0.7249 4.1000 0.0405 2.3771 -0.4218 -3.1203 2.5877 0.9711 -3.1012 2.8376 -0.6790 -2.2343 1.5675 1.5318 -2.2458 1.8966 2.7542 -1.6804 1.7106 4.2746 1.0121 0.0894 3.1640 -1.0736 0.5227 4.0256 0.0494 0.9899 -3.4184 4.0329 -2.0506 -3.7697 1.0038 -2.6024 -1.5593 0.0829 -0.8843
5.9367 0.7337 0.4879 -2.5005 -1.7843 2.7029 0.2425 -2.4986 3.9276 -6.4222 1.6892 -1.5842 -5.0280 1.2324 0.5064 -2.1307 3.9933 -1.7486 0.8925 2.3792 -1.3772 -5.0096 -0.2694 -1.4025 -2.9499 3.0239 -3.8190 0.4038 0.0301 -1.9946 -1.7514 -0.2287 0.0106 -3.8028 1.8877 -1.7832 -1.0010 0.9826 -0.1477 0.3012 -1.2816 0.6296 -1.2957 1.7368 -2.6265 3.9937 -1.6372 -1.3875 2.8614 -0.8709 2.7654 4.9161 -0.7541 -1.1451 3.0594 -2.1459 -0.5120 3.9798 -0.2809 2.3908 -1.2824 -1.7084 2.1454 -0.0369 -2.0839 2.6828 -1.0104 -1.0842 0.9527 0.9220 -1.8039 1.7338 2.2782 -1.7036 1.7940 5.0015 -0.2392 0.1383 3.1077 -1.6532 0.6776 4.1653 -0.6904 1.0847 -4.9804 1.1510 -1.1040 -2.6283 2.6332 -2.4628 -0.2318 1.2451 -1.5356
4.7937 2.1643 1.1240 -1.1077 -4.4967 2.3655 1.8908 -4.3812 2.9196 -3.3342 4.9008 -3.3396 -3.7588 2.7499 -4.6426 -5.7115 1.4292 -0.7595 -1.3224 0.1632 -1.4373 -1.6983 3.1297 -3.4127 -4.3588 3.0627 0.4041 -1.0604 1.8322 0.3916 -1.7199 -1.8701 0.6797 -3.6863 2.6968 -1.9551 -1.4849 -0.5260 1.0978 0.6550 -2.0093 0.6197 -3.3425 0.9180 0.0089 3.3068 0.3229 -1.5834 3.5368 -1.5785 2.3582 3.8036 1.3437 -0.9464 2.8800 -0.8580 -1.0278 4.2441 -0.4748 2.2502 -0.1952 -3.6970 1.7963 1.1979 -3.6516 2.0216 -0.4882 -2.6080 1.0131 1.6916 -2.6198 1.2582 2.8898 -1.9816 1.1753 4.2385 1.1309 0.3652 3.2200 -1.0390 0.2024 4.0727 -0.0690 0.9342 -3.1345 3.3097 -3.2596 -4.2389 2.0775 -0.6479 -1.7791 0.6291 0.0265
5.4440 1.6023 1.1240 -1.4776 -4.1827 2.1714 1.5277 -4.7191 2.2118 -3.1969 1.0367 -3.9972 -1.8964 3.2021 -3.6812 -4.0265 4.1317 0.1924 -0.6937 2.3067 0.2620 -4.2325 3.2124 -4.3465 -5.5353 2.2482 -0.1529 -1.7361 0.5408 -1.1399 -1.8508 -1.3032 0.9877 -3.7614 2.6015 -1.9418 -1.4736 0.0305 1.2908 0.5445 -1.6014 0.8924 -3.2423 1.7336 0.4543 3.4289 0.2609 -1.5220 3.6287 -1.9590 2.2411 4.2139 1.0889 -0.9009 2.7856 -0.8233 -0.9738 4.5588 -1.0236 2.1207 -0.4884 -3.4015 1.7158 0.8933 -3.6434 1.7265 -0.6668 -2.1441 1.2046 1.5101 -2.5146 1.2307 2.8018 -2.1073 1.1191 4.6698 0.7333 0.3621 3.2319 -1.1763 0.1826 4.3453 -0.4688 0.8694 -3.3417 2.5354 -3.4247 -4.1808 2.6676 -0.4572 -1.7834 1.1356 0.1786
4.5002 2.4317 0.0981 -1.2601 -3.8878 3.3703 1.7171 -3.4331 3.9223 -2.8684 4.1580 -0.4732 -3.8480 4.9984 -2.6783 -5.2174 0.6569 -2.8866 -0.7206 -0.8880 -1.5175 -1.5479 4.2199 -2.4994 -3.0051 0.3953 -3.8673 -1.3114 1.2751 -0.4583 -1.9574 -2.1471 0.8406 -3.2752 2.4127 -2.3799 -2.0856 -0.7397 0.7496 0.3915 -1.7270 1.1374 -3.1851 -0.0184 -1.4940 3.4597 -0.5490 -1.6058 3.0511 -0.4264 2.7482 3.9498 0.6412 -1.4473 2.8874 -1.3382 -0.6409 3.7919 0.5532 2.2507 -0.3846 -3.1517 2.6741 0.9786 -2.9367 2.9235 -0.7101 -2.4029 1.5745 1.4280 -2.0351 1.9825 2.5870 -1.3417 1.8034 4.0930 1.1283 -0.1529 3.0626 -0.9247 0.5624 3.8192 0.3188 0.8886 -2.8831 3.8707 -2.0556 -3.6476 0.9478 -2.6946 -1.8091 -0.0608 -0.6747
6.6090 0.3442 2.0086 -1.8210 -3.3808 1.4881 0.9803 -4.4326 0.7911 -5.5573 3.4660 -1.9133 -5.4946 2.6608 -4.3457 -0.8466 1.4813 -2.9616 -2.7792 2.2915 1.6710 -4.1074 4.5060 -3.5392 -2.5948 -0.1379 -2.4545 -4.3848 1.1378 0.1565 -1.4710 -0.2959 2.0401 -3.4046 2.2400 -2.7230 -2.6044 -0.2709 1.1935 0.7492 -0.9667 1.4436 -2.0303 1.4221 -0.6886 4.0868 0.9701 -0.4879 3.6967 -2.6205 2.0132 5.2167 1.0925 0.1444 3.1281 0.0186 -0.2414 4.8942 -2.0589 2.0787 -0.6719 -2.6975 1.3622 0.6101 -3.1761 1.0682 -0.5546 -1.3440 1.5762 1.4705 -2.1027 1.1732 2.8227 -1.9887 1.1204 5.5596 0.1430 1.1111 3.4957 -0.9238 0.5571 4.8307 -0.9814 1.2065 -4.5500 3.1863 -3.1392 -2.2854 1.2689 -2.2726 -2.9924 1.1493 0.5632
4.2068 2.4062 -0.6205 -2.4313 -2.3825 2.7757 0.2915 -1.1772 3.2928 -2.3057 4.4460 0.4401 0.0311 3.5472 0.9672 -2.9163 1.6504 -2.9011 -3.6319 -1.2669 -3.0533 -1.9669 2.3814 1.6740 -0.4927 1.4881 -2.9559 -1.2680 -1.6309 -3.6660 -2.5769 -2.9258 -0.3356 -1.5199 2.2162 -0.7537 -2.0801 -2.8644 -1.6686 -0.2637 -2.3168 0.0151 -1.6654 -0.2284 -1.6743 3.5238 1.0452 2.6263 1.9641 -1.0780 -0.8631 3.9968 1.8604 1.7331 2.7199 -0.0475 2.4059 2.7976 -0.0980 -1.1613 -1.4155 -2.2622 1.9146 -0.1410 -1.7262 2.1527 -1.4783 -2.5607 0.5809 0.5534 -1.7609 0.9627 1.7378 -1.2670 0.5114 3.8019 1.5513 0.3961 2.5322 -0.3415 1.1679 3.1765 0.4133 0.0634 -1.4433 3.0875 0.5188 -1.5963 1.3453 -2.0270 -2.1403 -1.5034 -2.5183
2.8098 3.1363 0.2027 -1.2632 -4.6008 2.6754 1.2651 -3.2846 3.7527 -3.1709 4.0992 -2.9149 -0.7346 3.6724 -3.5597 -0.6297 1.8434 0.9829 -3.5970 -0.8839 -1.5272 -1.3357 5.1262 -1.7179 -2.9356 1.3693 0.4428 -1.6433 -0.7630 -3.0401 -1.9738 -3.0596 -0.0267 -1.6824 2.6937 -1.2567 -1.5471 -2.5050 -1.2699 0.0852 -2.0313 0.6887 -1.2681 0.0762 -0.7505 2.8367 0.0494 -1.6191 2.0245 -0.0979 2.6761 2.9104 1.3283 -1.4068 2.4518 -0.9096 -0.7129 2.5234 1.0594 2.2658 -0.5147 -3.6573 2.0862 0.6572 -3.0559 2.5804 -0.8425 -3.0012 0.9234 1.0073 -2.0615 1.6968 1.9468 -1.0817 1.6811 2.8322 1.7784 -0.0955 2.4097 -0.5008 0.5081 2.7498 0.8887 0.9094 -1.7080 3.8448 -2.2894 -1.6578 1.5435 -0.2227 -2.0055 -1.0152 -1.6623
4.3241 2.4409 -0.4447 -2.4802 -2.8108 2.7931 -0.1749 -1.3533 4.1845 -3.2412 4.1013 0.4113 -0.7156 4.1051 -0.0337 -3.8593 1.2063 -2.9614 -2.4453 -2.1814 -3.5980 -1.7788 2.3835 1.3033 -1.4926 1.5307 -3.4561 -0.2062 -1.1536 -3.2724 -1.8716 -2.7305 -0.3033 -2.1829 2.2078 -1.1282 -1.0219 -2.6292 -1.4467 0.0163 -1.5409 0.6540 -2.0687 -0.2572 -1.8816 3.9994 -1.1254 -0.7495 1.6660 0.9160 2.3421 4.4446 0.0730 -0.9858 3.0323 -1.4763 0.1591 2.6194 1.6649 1.8056 -1.3921 -2.2528 2.2356 -0.3332 -1.5951 2.8798 -1.1456 -2.2225 0.8766 0.5096 -1.1599 1.8682 1.6399 -0.3979 1.8735 4.0122 1.1195 -0.1671 2.6645 -0.5311 0.9479 3.2709 0.8267 0.9148 -2.0051 3.1351 0.0818 -2.3798 1.2496 -2.3409 -1.4040 -1.5423 -2.5620
3.5464 3.0696 0.3536 -1.7718 -3.9544 2.4931 0.7997 -2.9624 3.8043 -0.6214 3.9320 -2.5567 0.5871 1.8906 -1.6204 -4.5616 2.3480 -0.6016 -1.6017 0.0405 -3.3531 -0.0754 3.7469 -0.2050 -3.2118 0.8473 0.7265 -3.2996 -1.7541 -3.0558 -2.0525 -2.3338 -0.2396 -1.9052 2.2096 -0.9381 -1.5546 -1.5040 -1.2814 0.1423 -1.7147 0.5701 -3.5020 0.2471 -1.5899 3.3483 0.0133 -1.5275 2.1636 -0.0611 2.6811 3.5398 1.2724 -1.2977 2.8168 -0.9150 -0.6680 2.7872 1.0516 2.3178 -0.8506 -3.1329 1.9717 0.3639 -2.7055 2.5648 -0.9742 -2.4765 0.7661 0.9662 -1.8440 1.6580 2.0432 -1.0213 1.6824 3.4183 1.7258 0.0123 2.6666 -0.4953 0.5432 3.1173 0.8512 0.9882 -0.5875 2.9442 -1.2882 -3.2183 1.4677 -0.5853 -2.5186 -0.7829 -2.3248
5.4685 1.4523 2.2709 -1.4966 -4.4535 1.0144 1.5304 -4.6833 0.6615 -3.6389 4.3810 -3.8301 -4.3016 4.4790 -1.3586 -0.4653 2.6026 -0.4377 -4.2584 -0.0589 -1.3674 -4.9273 2.6109 -2.7678 -0.2971 1.6181 -2.6653 -3.4058 1.0374 0.6925 -2.0908 -1.4134 1.5869 -2.5253 2.6941 -2.0838 -2.8769 -1.3862 0.4071 0.2961 -1.4287 1.2549 -1.7098 0.4593 -1.0416 3.1643 1.3840 -0.4681 3.5107 -2.1826 2.0405 4.0910 1.8419 0.3121 2.4845 0.1932 -0.3369 4.4993 -1.3157 2.2035 -0.5843 -3.4737 1.0277 0.8037 -3.5734 0.8604 -0.8613 -2.1510 1.2688 1.3216 -2.3091 1.0151 2.5853 -1.8213 1.0564 4.6005 0.9949 1.2885 2.9945 -0.6115 0.5316 4.2241 -0.2954 1.3061 -3.7853 3.4763 -2.5088 -1.2809 1.8978 -1.6337 -3.0688 0.0352 -0.2993
5.5749 1.2763 1.4718 -1.9066 -3.8149 1.7284 0.9933 -4.6287 2.1723 -3.1482 0.3929 -3.4196 -4.1789 2.4139 -4.5993 -2.4496 4.5468 -0.9330 -0.8492 1.3497 -1.1241 -5.4673 1.0059 -3.0971 -4.5995 3.8686 -0.0203 -0.3363 2.5111 1.0110 -1.8064 -0.8900 0.5096 -3.8054 2.4754 -1.9545 -1.4304 0.2871 1.2145 0.5093 -1.5048 0.6168 -2.7241 2.3935 0.3978 3.8488 0.0464 -1.4183 3.3309 -2.1002 2.3546 4.5953 0.8279 -0.6996 3.0243 -0.9554 -0.9480 4.3407 -1.2395 2.3571 -0.8001 -3.1544 1.3607 0.5420 -3.5321 1.5467 -0.7805 -1.8943 0.8209 1.3273 -2.4961 1.0863 2.6560 -2.2098 1.1320 4.8393 0.4622 0.6164 3.2801 -1.3258 0.2567 4.3473 -0.6980 1.0835 -4.1638 1.6277 -3.1984 -3.4526 3.3091 -0.7076 -1.3106 1.6491 0.3828
6.7712 -2.8704 0.8446 -0.1193 2.5319 2.0089 1.3833 0.2061 3.1809 -7.2152 -0.2287 -2.0079 -6.1703 1.9593 -2.8463 -3.0413 -1.6712 -0.9381 -1.0963 2.0784 -3.7683 -6.7554 1.6322 -0.5157 -2.7703 0.3949 0.3097 -3.1818 2.7292 -2.5853 0.2802 2.3215 -1.1366 -4.7262 0.4034 -1.2856 -1.1045 2.6136 -1.1976 1.2060 0.2680 -0.3528 -2.2662 0.4688 -2.0665 4.5205 -2.1723 3.5568 2.9833 -1.7450 -0.5380 5.6160 -2.5108 2.9556 3.3391 -1.7688 2.9654 4.1643 -2.3366 -0.4609 0.4291 1.5040 1.3417 1.1328 0.4210 1.8841 0.5388 1.4121 -0.0193 1.6010 -0.3333 0.8245 2.4391 -1.3862 0.7016 5.6194 -2.5794 1.5655 3.3408 -1.7939 1.6782 4.4727 -2.3740 0.8913 -6.1515 0.9131 -1.6166 -3.2948 -0.0837 -0.9569 -1.9443 1.9969 -2.4160
4.3399 2.3941 1.0299 -0.9487 -4.7369 2.3655 2.1021 -4.4258 2.5533 -2.6074 4.7093 -3.3602 -2.4512 2.3911 -4.4355 -5.5182 1.5030 -1.1125 -1.2044 -0.0175 -1.0730 -0.9190 3.1121 -2.6976 -4.3272 3.0689 0.2896 -1.0876 1.6418 0.7794 -1.9098 -2.0412 0.9284 -3.1942 2.6041 -1.8703 -1.7251 -0.7037 1.4053 0.4366 -2.0483 0.5575 -3.3555 0.8703 0.1125 2.6103 0.6985 -1.6271 3.4164 -1.4928 2.0699 3.1627 1.6796 -0.9792 2.4135 -0.5939 -1.1840 3.9909 -0.3117 2.0055 -0.1633 -3.8353 1.7570 1.2331 -3.7064 1.8169 -0.6199 -2.7218 1.0892 1.5750 -2.6038 1.0678 2.7095 -1.8709 0.9199 3.7209 1.4119 0.2579 2.8587 -0.8297 0.0033 3.6717 0.1671 0.7515 -2.3320 3.1549 -3.0264 -4.0610 2.0563 -0.7164 -1.8170 0.4770 0.3221
5.2926 1.6876 1.8847 -1.2770 -4.7773 1.0476 1.6902 -4.6768 0.2916 -4.8133 3.3227 -2.9518 -2.8731 3.1214 -4.6137 -0.0603 1.6682 -1.6961 -3.1652 0.8416 1.7593 -3.0077 4.9477 -3.0259 -1.2004 2.6898 0.1726 -4.4641 0.1461 -0.2425 -2.0899 -1.8517 1.8361 -2.3713 2.7363 -2.0686 -2.9216 -1.5532 0.7218 0.2405 -1.6074 1.2677 -2.0376 0.5275 -0.5969 2.5959 1.5766 -0.4866 3.6013 -2.1139 1.6752 3.6139 2.0461 0.1685 2.0617 0.3148 -0.3569 4.5142 -1.1585 1.7927 -0.4572 -3.7182 1.0075 0.9003 -3.6678 0.6790 -0.8359 -2.4433 1.3433 1.3156 -2.3730 0.8859 2.5286 -1.7724 0.8431 4.3230 1.2036 1.0158 2.7566 -0.4899 0.3727 4.0420 -0.1072 1.0221 -3.2237 3.5127 -3.0920 -1.5042 1.9677 -1.0502 -3.1738 0.0000 0.3942
5.1715 1.4777 1.6780 -1.7928 -4.2712 1.2532 1.1784 -4.8610 1.4068 -3.0373 2.4485 -4.4238 -5.2983 1.8341 -3.4239 -4.4049 3.9024 0.2084 -0.6534 1.1010 -0.6209 -3.3661 0.4147 -3.1344 -2.1036 4.2875 -0.4740 -0.2834 1.9665 1.6703 -2.0264 -1.1729 0.6532 -3.3969 2.5168 -1.7614 -1.6715 -0.0930 1.5066 0.3297 -1.5677 0.4931 -2.5682 2.2345 0.7402 3.3787 0.7025 -1.3299 3.2918 -2.2137 1.9353 4.0872 1.3973 -0.4880 2.7009 -0.4632 -1.0605 4.2120 -1.2634 2.0731 -0.7759 -3.4501 0.9756 0.6008 -3.7228 1.0064 -0.9023 -2.1160 0.6947 1.2614 -2.5555 0.6922 2.5635 -2.1526 0.7404 4.4544 0.7857 0.7023 3.0498 -1.0517 0.0324 4.0823 -0.4809 0.9427 -3.7169 1.8284 -3.1101 -3.0900 3.2262 -0.4226 -1.2746 1.3118 0.8444
4.9469 1.8661 0.9815 -1.4441 -4.4188 2.1518 1.5918 -4.6867 1.9816 -2.9965 1.0696 -4.2584 -0.9691 2.3340 -3.3573 -5.3936 2.2616 -0.4705 -1.0859 2.3875 1.6757 -2.9196 3.4983 -4.2020 -3.5663 3.7484 0.1067 -0.8607 0.8960 -0.2930 -2.0535 -1.4201 1.2664 -3.1905 2.4143 -1.9629 -1.6059 -0.1844 1.8361 0.2546 -1.7110 0.6666 -3.1763 1.3922 0.4646 2.8628 0.6423 -1.6774 3.3562 -1.8533 1.8872 3.6197 1.4659 -1.0117 2.3916 -0.5841 -1.2465 4.1611 -0.8048 1.8473 -0.5694 -3.5664 1.5961 0.8247 -3.7058 1.4824 -0.8638 -2.2907 1.1801 1.2996 -2.5494 0.9023 2.5417 -2.0199 0.7543 4.1516 1.0416 0.1980 2.8547 -0.9688 -0.1064 3.8801 -0.1944 0.6407 -2.5809 2.3530 -3.3799 -3.8004 2.4753 -0.5457 -1.6606 1.1124 0.8923
4.7797 1.9538 1.3412 -1.4694 -4.5847 1.6358 1.5628 -4.8159 1.6258 -2.1008 0.7894 -3.5632 -1.3530 3.2220 -3.5933 -5.2750 2.8196 -0.2253 -0.9800 0.7659 -0.5350 -3.5718 2.5682 -4.3299 -3.1658 3.9526 0.1886 -0.9798 1.9341 1.6525 -2.1157 -1.5710 0.9023 -3.1536 2.5091 -1.8387 -1.8606 -0.3957 1.6622 0.2692 -1.6935 0.6316 -3.1987 1.5765 0.6014 2.9376 0.7933 -1.5070 3.3639 -1.9031 1.9105 3.6111 1.6110 -0.7552 2.4101 -0.4212 -1.1296 4.1730 -0.8566 1.9452 -0.5752 -3.6620 1.2542 0.8253 -3.7708 1.2231 -0.8781 -2.3661 0.9276 1.3230 -2.5454 0.8274 2.5641 -1.9916 0.7632 4.1056 1.1272 0.4489 2.8827 -0.8870 -0.0247 3.9062 -0.1616 0.7780 -2.6234 2.2849 -3.2737 -3.6791 2.7325 -0.4072 -1.7342 0.9862 0.8633
4.5340 2.5169 2.5880 -0.2464 -4.7058 0.1953 2.3547 -3.1536 -0.0668 0.3357 3.6836 -1.1710 -0.6860 3.4058 -3.5012 -4.3856 1.6928 -1.9795 -5.0236 -1.0316 -1.5197 0.3630 1.5504 -2.3437 -3.7412 2.5797 0.1881 -4.9050 -0.9568 0.9607 -2.4674 -2.6261 0.9762 -1.8671 2.2098 -1.4764 -3.2005 -2.3441 -0.2036 -0.5171 -1.2258 0.6649 -3.1188 0.2700 -0.2560 5.1432 -0.4794 0.7003 1.0503 1.0374 0.9644 5.3967 0.5334 1.4736 3.9064 -0.8927 0.2670 1.9691 1.9037 1.3605 -0.0619 -3.3816 0.3004 1.1345 -2.6541 0.1865 -1.0427 -2.4868 0.6350 0.8342 -1.3193 0.3987 1.5617 -0.1661 0.4505 4.3743 1.4412 1.7186 2.9449 -0.0763 0.5282 3.1756 1.2623 1.1389 -0.5225 2.6693 -2.0774 -3.2129 1.7494 -0.8754 -4.0796 -1.0053 -0.2253
4.0566 2.6801 0.9247 -1.1945 -4.8055 1.7222 1.8070 -4.4021 2.1332 -0.5192 1.1627 -3.1989 -0.1041 3.3784 -2.0158 -4.0725 3.3190 -0.0515 -1.0131 0.7025 0.1213 -1.4437 3.2502 -4.0437 -5.0166 1.9247 -1.8158 -2.4944 1.2949 2.0100 -2.2506 -2.1171 0.3861 -2.5115 2.3325 -1.9386 -2.5535 -1.0857 1.3161 0.1119 -1.7575 0.5409 -3.6211 0.8186 -0.1464 2.9067 0.6144 -1.7730 2.9043 -1.0822 2.2631 3.3989 1.6576 -1.1757 2.4233 -0.5271 -1.1739 3.5815 0.0509 2.1560 -0.4394 -3.7668 1.3390 0.9423 -3.5802 1.5206 -0.9183 -2.6233 0.7518 1.2513 -2.3286 1.0359 2.3626 -1.5502 1.0603 3.6509 1.5717 0.1877 2.7097 -0.6346 0.0752 3.4815 0.3991 0.8188 -1.2421 2.5436 -2.7916 -3.7750 2.1210 -1.0845 -2.4191 0.4389 0.8464
5.1412 2.2156 1.6960 -1.7630 -3.9656 1.5894 1.2869 -4.1694 1.4613 0.2930 3.3651 -0.8889 -1.9725 3.1997 0.2676 -3.1970 0.8809 -3.8983 -5.0007 -1.2362 -1.5480 -1.6808 4.4844 -1.7717 -0.9065 0.1330 -3.5458 -4.1360 0.7636 -0.3744 -2.4454 -0.8833 1.3894 -1.6409 1.9697 -2.0046 -3.3224 -1.4702 0.4387 -0.0402 -0.9052 1.3206 -2.5360 -0.4637 -1.8468 2.9504 1.3833 -0.9885 3.1287 -1.3229 2.4452 3.8951 2.0083 -0.3623 2.2460 0.2820 -0.5581 4.1191 -0.4406 2.4034 -0.8682 -2.9735 1.4732 0.5258 -3.0723 1.4080 -1.1881 -1.6420 1.3752 1.0130 -1.7815 1.3518 2.2565 -1.2580 1.3561 4.3143 1.4933 0.8532 2.6936 -0.2407 0.5359 3.8935 0.2794 1.2432 -1.2873 3.2194 -1.1900 -2.0235 0.7072 -2.8196 -3.7489 -0.5596 -0.8111
3.8735 2.7753 0.6532 -0.9590 -4.6148 2.7776 2.0477 -4.2490 2.3497 -2.1408 4.2503 -3.5735 0.2111 3.3228 -3.2530 -2.1970 -0.5656 -3.1673 -1.8057 1.7987 1.0736 -1.1143 4.1328 -1.3882 -4.0063 0.6768 -2.1532 -4.0485 0.7623 0.8845 -2.3295 -2.0087 1.6000 -1.9042 1.9502 -2.3408 -2.2779 -0.6253 1.9450 -0.0190 -1.6974 1.0434 -2.2783 -0.0809 -0.6499 2.0459 0.8483 -1.7729 3.0992 -1.0357 2.0340 2.6146 1.8925 -1.2412 1.7982 -0.3628 -1.1777 3.6884 0.1232 1.8159 -0.3276 -3.6303 2.1270 1.0484 -3.4667 1.9082 -0.9484 -2.5160 1.6182 1.2147 -2.2672 1.2499 2.2979 -1.4845 0.9765 3.2495 1.7197 -0.0166 2.3630 -0.5210 -0.0246 3.2490 0.5104 0.5676 -1.2490 3.3359 -2.5893 -2.5572 0.5745 -2.0923 -2.6382 0.4522 0.8160
4.9873 2.2968 1.0598 -1.2400 -4.6756 1.2212 1.6070 -4.3171 0.1602 -1.9757 4.7968 -2.4542 0.2247 3.6617 -3.0387 -3.9639 0.9894 -2.3050 -4.9322 -0.5226 -0.1051 -0.4274 4.0732 -0.7315 -1.8686 -0.0594 -2.8752 -3.5512 0.6401 1.5914 -2.1420 -1.8213 2.2810 -1.6982 2.2345 -1.9312 -3.1029 -1.7923 1.2351 0.1318 -1.4526 1.6041 -2.3873 0.0376 -0.5149 1.9184 1.8445 -0.7381 3.5157 -1.5784 1.4838 3.0264 2.4139 -0.3744 1.4950 0.5739 -0.4255 4.3635 -0.5642 1.3833 -0.4854 -3.5700 1.2293 0.8240 -3.4056 0.7565 -0.8926 -2.3474 1.7082 1.1876 -2.1036 1.0152 2.3123 -1.3817 0.8037 3.9060 1.6913 0.4257 2.3577 -0.1284 0.2244 3.6973 0.3797 0.6157 -0.9914 3.6091 -1.9824 -2.4104 0.8596 -1.8951 -3.4854 -0.3820 0.5730
5.1376 1.4418 2.1811 -1.2738 -4.4325 -0.9045 1.4646 -3.5669 -1.9274 -0.2962 1.1355 -2.9653 0.6094 3.3382 -2.0563 -4.2018 2.4439 -0.3485 -5.0881 -0.1657 0.5732 -1.3556 3.2477 -3.4765 -2.4145 3.0152 1.1933 -3.6476 -0.3228 2.5884 -2.0235 -2.4340 1.4302 -1.7080 2.3732 -1.1539 -3.1088 -1.8729 0.7072 0.1428 -1.6471 0.7142 -2.5966 0.6801 0.5852 1.9672 2.2235 0.7260 3.5240 -1.8239 0.1594 3.1134 2.4296 1.2896 1.5047 1.0471 0.2017 4.4211 -0.9768 0.6512 -0.5287 -3.4044 -0.4897 0.7213 -3.0145 -0.9647 -0.8724 -2.5399 0.5194 1.1281 -1.9504 -0.1931 2.2836 -1.2455 -0.1305 4.0020 1.3700 1.3800 2.3729 0.0944 0.1885 3.7553 0.2375 0.7007 -0.7590 2.5517 -2.3558 -2.6621 2.1819 0.0326 -3.6114 -0.4139 1.1442

>  <OB_ATOM_TYPES> (1ei1A1)
N.pl3 O.3 O.3 O.3 O.3 O.3 O.3 O.2 O.2 O.2 C.3 N.3 O.3 O.3 O.3 C.ar C.ar N.ar N.ar N.ar C.3 C.3 C.3 C.3 N.ar C.ar C.ar C.ar P.3 P.3 P.3

>  <ENSEMBLE_RMSD> (1ei1A1)
1.621 1.659 1.722 2.121 2.156 2.162 2.170 2.217 2.219 2.272 2.282 2.290 2.312 2.333 2.344 2.358 2.374 2.381 2.393 2.419 2.445 2.454 2.493 2.540 2.550 2.579 2.612 2.641 2.646 2.689 2.693 2.700 2.760 2.791 2.798 2.828 2.829 2.847 2.851 2.903 2.910 3.001 3.048 3.097 3.188 3.250 3.255 3.359 3.436 3.608

$$$$
