
 OpenBabel03071213D

 25 28  0  0  0  0  0  0  0  0999 V2000
   33.2340    3.4270   27.5260 N   0  0  0  0  0
   34.8510    4.8760   27.2810 N   0  0  0  0  0
   25.3160    7.7840   27.9360 O   0  0  0  0  0
   27.5820    6.6420   28.8350 C   0  0  0  0  0
   22.7960   12.7650   27.5790 C   0  0  0  0  0
   21.6000   10.5700   28.0280 C   0  0  0  0  0
   22.3300   12.0400   29.9730 C   0  0  0  0  0
   23.9920   10.5490   27.1350 C   0  0  0  0  0
   24.7070   12.0000   29.0690 C   0  0  0  0  0
   23.5050    9.8130   29.5460 C   0  0  0  0  0
   27.2030    8.0200   29.0940 N   0  0  0  0  0
   33.1960    5.8990   27.6390 N   0  0  0  0  0
   25.8560    9.8630   28.7070 N   0  0  0  0  0
   29.7790    5.4990   29.3810 C   0  0  0  0  0
   29.7990    7.3260   27.7680 C   0  0  0  0  0
   31.1050    5.2080   29.0770 C   0  0  0  0  0
   31.1620    7.0740   27.5100 C   0  0  0  0  0
   22.6160   11.2980   27.0970 C   0  0  0  0  0
   23.3450   12.7570   29.0310 C   0  0  0  0  0
   22.1400   10.5700   29.4910 C   0  0  0  0  0
   33.5800    4.6700   27.5130 C   0  0  0  0  0
   26.0830    8.5320   28.5490 C   0  0  0  0  0
   29.0900    6.4880   28.6600 C   0  0  0  0  0
   31.7920    5.9960   28.1480 C   0  0  0  0  0
   24.5380   10.5130   28.6040 C   0  0  0  0  0
  1 21  1  0  0  0
  2 21  2  0  0  0
  3 22  2  0  0  0
  4 11  1  0  0  0
  4 23  1  0  0  0
  5 18  1  0  0  0
  5 19  1  0  0  0
  6 18  1  0  0  0
  6 20  1  0  0  0
  7 19  1  0  0  0
  7 20  1  0  0  0
  8 18  1  0  0  0
  8 25  1  0  0  0
  9 19  1  0  0  0
  9 25  1  0  0  0
 10 20  1  0  0  0
 10 25  1  0  0  0
 11 22  1  0  0  0
 12 21  1  0  0  0
 12 24  1  0  0  0
 13 22  1  0  0  0
 13 25  1  0  0  0
 14 16  1  0  0  0
 14 23  2  0  0  0
 15 17  2  0  0  0
 15 23  1  0  0  0
 16 24  2  0  0  0
 17 24  1  0  0  0
M  END
>  <MOLID> (1ejnA1)
1ejnA1

>  <SMILES_CANONICAL> (1ejnA1)
O=C(N[C@]12C[C@H]3C[C@@H](C2)C[C@@H](C1)C3)NCc1ccc(cc1)NC(=N)N	

>  <FINGERPRINT> (1ejnA1)
0000000000000000000000000000001000000001100000000001100000010000000000000001000000000001000000001000000000000001000011100000000000000000000000000000000000000000000000000000000000000000000000000000000000000000000000000000010000000010000000000011000000000001000000000000000000000000000000000000000000000000000010001100001000000001001000000000000000000100010000000000000110000000000000000000000000000000100110000000000000000000000000001000000000000000000000000000000000000000010000000000000000000000000000000000000000000000000001000100000000000000000000100000000000000000000000000000101000000000001000000100000000000000000000000000000000000001110000000000001000000001000000000001100000000101100001000001000000100000000000000000000000000000000000000101000000000000000110000000000000010001000000000000000010000000000000000000000000000000010000000000000000000000000000001001000000000000000000001000000000000000000000001000000100010000000000000000011000000000000000010000000000001110000000000000000010000100000000000100001000000000

>  <MACCS166> (1ejnA1)
000000000000000000000000100000000000100000101000010000000000000001000000000111000001000001100000001000011100011100001010000000010010101101010100110000101111011010111000

>  <OB_MW> (1ejnA1)
341.222

>  <OB_logP> (1ejnA1)
4.4148

>  <OB_PSA> (1ejnA1)
103.03

>  <OB_MR> (1ejnA1)
99.7772

>  <OB_ATOMIC_CHARGES> (1ejnA1)
0.135818533 0.135818533 -0.2491788674 0.1431612058 0.0001108237 0.0001108237 0.0001108237 0.0200738741 0.0200738741 0.0200738741 -0.1823524089 -0.0605011948 -0.1906231031 0.0004604028 0.0004604028 0.0368382509 0.0368382509 0.0016520226 0.0016520226 0.0016520226 0.5392576666 0.3394561056 -0.0003167999 0.1591553542 0.0801975074

>  <MCT_HBD> (1ejnA1)
5

>  <MCT_HBA> (1ejnA1)
6

>  <ENSEMBLE_TOTAL> (1ejnA1)
48

>  <ENSEMBLE_COORDS> (1ejnA1)
5.9861 -4.9802 -0.8411 7.6031 -3.5312 -1.0861 -1.9319 -0.6232 -0.4311 0.3341 -1.7652 0.4679 -4.4519 4.3578 -0.7881 -5.6479 2.1628 -0.3391 -4.9179 3.6328 1.6059 -3.2559 2.1418 -1.2321 -2.5409 3.5928 0.7019 -3.7429 1.4058 1.1789 -0.0449 -0.3872 0.7269 5.9481 -2.5082 -0.7281 -1.3919 1.4558 0.3399 2.5311 -2.9082 1.0139 2.5511 -1.0812 -0.5991 3.8571 -3.1992 0.7099 3.9141 -1.3332 -0.8571 -4.6319 2.8908 -1.2701 -3.9029 4.3498 0.6639 -5.1079 2.1628 1.1239 6.3321 -3.7372 -0.8541 -1.1649 0.1248 0.1819 1.8421 -1.9192 0.2929 4.5441 -2.4112 -0.2191 -2.7099 2.1058 0.2369
6.5733 -4.5917 0.1514 6.9822 -4.2578 -2.1430 -1.3888 0.4943 1.8283 0.6666 -1.2680 1.1234 -4.2071 4.4429 -0.4891 -5.7729 2.5246 -0.6138 -4.8051 3.1943 1.5776 -3.4755 2.3117 -1.5539 -2.5210 3.0116 0.6227 -4.1016 1.0727 0.4989 -0.0957 -0.4826 0.1827 5.7958 -2.6580 -0.8847 -1.8402 0.9013 -0.4114 2.2697 -2.9894 0.3564 2.9622 -0.6750 0.2820 3.5811 -3.3606 -0.1414 4.1807 -1.0272 -0.1612 -4.6554 3.2621 -1.3461 -3.6931 3.9538 0.8607 -5.2762 2.0134 0.7347 6.4357 -3.8761 -1.0218 -1.1326 0.3203 0.6366 1.9538 -1.6925 0.5196 4.5219 -2.4270 -0.4005 -2.9579 1.8029 -0.2083
6.7411 -3.8975 0.4227 7.4614 -3.7526 -1.8070 -1.9616 -0.2685 1.6653 0.4106 -1.6052 1.0253 -3.6422 4.5140 -0.4595 -5.6025 2.9963 -0.4376 -4.3439 3.4283 1.6653 -3.4865 2.2775 -1.5445 -2.2388 2.7363 0.5483 -4.2209 1.2070 0.5633 -0.4293 -0.9250 0.0678 5.6199 -2.4886 -1.0813 -2.1238 0.5341 -0.5032 2.3557 -3.0802 0.6744 2.4990 -0.8277 -0.1825 3.6941 -3.3226 0.1681 3.7402 -1.0563 -0.6434 -4.4073 3.4659 -1.2625 -3.1482 3.9193 0.8554 -5.1312 2.3858 0.8777 6.6135 -3.4266 -0.8685 -1.5399 -0.2205 0.5095 1.7535 -1.8964 0.4601 4.3829 -2.3585 -0.4795 -2.9960 1.6618 -0.2340
5.4773 -4.7052 -1.6961 7.4236 -4.5789 -0.3879 -1.7311 0.1466 2.2124 0.7307 -0.4402 -0.3455 -4.1293 4.1621 -0.8416 -5.7447 2.3287 -0.4243 -4.6301 3.4646 1.4923 -3.5073 1.8199 -1.4020 -2.4111 2.9695 0.4997 -4.0539 1.1242 0.9099 -0.1149 -0.6311 0.8076 5.8759 -2.8122 -0.3618 -1.8477 0.6558 -0.0469 2.1816 -2.4300 0.1460 3.2119 -0.3119 -0.3964 3.5032 -3.0315 0.1473 4.4260 -0.8867 -0.4437 -4.6545 2.8299 -1.3676 -3.5444 3.9881 0.5571 -5.1839 2.1387 0.9804 6.2842 -4.0699 -0.7727 -1.2609 0.0883 1.0752 2.0365 -1.1185 -0.1226 4.5919 -2.3211 -0.2183 -2.9289 1.6208 -0.0004
5.9949 -4.5335 0.0436 7.3614 -3.2367 -1.3765 -1.8961 0.0165 -2.1819 0.1154 -1.3693 0.4811 -3.7513 3.9833 -0.7696 -5.4208 2.8860 0.6991 -3.3640 3.8677 1.6810 -4.0367 1.5058 -0.8330 -1.9774 2.4988 0.1430 -3.6475 1.3948 1.6112 -0.4809 -1.1624 -0.8195 5.6576 -2.2169 -0.1736 -2.2469 0.0653 0.1015 2.1320 -2.7210 0.8802 2.4102 -0.5823 -0.2273 3.5353 -2.9730 0.6707 3.7210 -0.8129 -0.4051 -4.7599 2.8430 -0.6744 -2.6893 3.8369 0.3143 -4.3724 2.7290 1.7963 6.3552 -3.3408 -0.5539 -1.5619 -0.3229 -1.0454 1.5746 -1.6088 0.3733 4.3070 -2.0792 0.0211 -2.9596 1.3325 0.2438
6.6512 -4.1778 0.5151 6.8705 -5.1346 -1.6164 -1.6500 -0.3182 1.0758 1.2254 -0.2253 1.1088 -4.5302 4.4074 0.2420 -5.6959 2.5040 -0.8346 -5.1539 2.4156 1.5933 -3.2904 2.9377 -1.3401 -2.7688 2.8713 1.0820 -3.9525 0.9571 -0.0157 0.3397 0.2684 0.0768 5.2822 -3.4486 -1.2542 -1.5860 1.4081 -0.4768 2.7043 -2.2178 1.1820 2.9272 -0.7250 -0.7001 3.7553 -3.0413 0.6066 3.9085 -1.4806 -1.2184 -4.6425 3.5889 -1.0408 -4.1125 3.5144 1.4064 -5.2949 1.5905 0.3180 6.2744 -4.3006 -0.8065 -1.0202 0.4026 0.3028 2.2665 -1.1233 0.5316 4.3616 -2.6972 -0.5504 -2.8690 2.0245 -0.1871
6.3432 -4.5775 0.1039 6.6478 -4.8359 -2.2104 -1.5534 0.2001 1.8784 1.1641 -0.5589 1.5269 -4.5287 4.3359 -0.2491 -5.4771 2.2503 -1.2016 -5.3185 2.5290 1.2647 -3.0393 2.7101 -1.3995 -2.8907 3.0046 1.0580 -3.8485 0.9055 0.0927 0.3590 0.1810 0.5837 5.3542 -3.0584 -1.3824 -1.4542 1.4033 -0.1052 2.3130 -2.6283 0.7675 3.2639 -0.4926 0.1489 3.3839 -3.2774 0.0318 4.2649 -1.0997 -0.5093 -4.4297 3.3417 -1.4022 -4.2804 3.6316 1.0813 -5.2402 1.5248 0.1187 6.1090 -4.2030 -1.2036 -0.9379 0.5684 0.8787 2.2306 -1.2859 0.7903 4.3452 -2.5556 -0.5843 -2.7801 1.9870 -0.0777
5.7499 -3.8539 -2.1514 7.6126 -2.6422 -1.3709 -1.8394 0.3357 2.5372 0.1055 -1.5580 0.1521 -3.5274 3.9626 -1.3707 -5.4591 2.6569 -0.5337 -4.0364 3.9274 1.0609 -3.4319 1.4678 -1.3783 -2.0236 2.7561 0.1967 -3.9803 1.4428 1.0333 -0.3402 -0.9291 1.3707 5.6375 -2.6470 -0.1332 -1.9514 0.3135 0.2209 1.9560 -3.1511 -0.1048 2.5147 -0.8756 0.5193 3.3678 -3.4255 -0.2328 3.8278 -1.1423 0.4183 -4.3409 2.6873 -1.5722 -2.9169 3.9806 0.0268 -4.8727 2.6659 0.8733 6.3648 -3.0042 -1.2510 -1.4130 -0.0591 1.4503 1.5412 -1.9212 0.2447 4.2804 -2.4530 -0.0346 -2.8249 1.4655 0.0291
6.8379 -1.7376 0.4358 7.7977 -3.6680 -0.4961 -1.9468 -0.4772 1.2771 0.0875 -2.0761 0.2079 -3.6895 4.6372 -0.1450 -5.5744 3.0285 -0.0469 -4.1098 3.3539 1.9431 -3.5610 2.5078 -1.4258 -2.1134 2.8511 0.5588 -4.0305 1.2407 0.6471 -0.4303 -0.8804 -0.4122 5.5418 -3.1610 -0.9078 -2.0315 0.7535 -0.6887 2.4280 -2.2766 0.9924 1.9968 -2.4402 -1.3792 3.8216 -2.5879 0.7258 3.2895 -2.7133 -1.6199 -4.4951 3.6211 -0.9496 -3.0300 3.9640 1.0553 -4.9410 2.3440 1.1584 6.7574 -2.9024 -0.3001 -1.5082 -0.2200 0.1557 1.5497 -2.1860 -0.0225 4.2653 -2.7867 -0.5341 -2.9118 1.8116 -0.2296
5.2716 -5.3520 0.1456 6.6535 -4.9545 -1.7233 -0.2691 2.8648 -0.1471 0.7511 -0.5528 0.3598 -4.5947 3.9018 -0.4010 -5.5861 1.6591 -0.7666 -5.3867 2.5622 1.5364 -3.1468 2.0000 -1.1175 -2.9594 2.9135 1.1891 -3.9406 0.6658 0.8152 0.7859 0.8904 0.3357 5.6582 -3.1629 -0.6169 -1.5393 1.0405 0.4993 2.5602 -2.0466 1.0963 2.8780 -0.8282 -0.9759 3.7807 -2.7648 0.8206 4.0276 -1.4809 -1.2160 -4.5282 2.6419 -1.2585 -4.3345 3.5572 1.0612 -5.3305 1.2926 0.6923 5.8604 -4.5168 -0.7857 -0.3428 1.6839 0.1973 2.1128 -1.1265 0.2242 4.4781 -2.5306 -0.3087 -2.8595 1.6430 0.3442
6.5439 -2.8348 1.0720 7.3717 -3.4468 -1.0375 -0.5664 0.2779 0.9333 -0.1499 -2.4361 0.2930 -3.4015 4.4880 -0.1030 -5.4115 3.0519 0.0670 -3.8336 3.1958 1.9830 -3.5353 2.3674 -1.4220 -1.9685 2.5714 0.4748 -3.9896 1.1027 0.6602 -0.9545 -1.5042 -0.4693 5.4179 -2.1322 -0.8521 -2.1251 0.4642 -0.7770 2.1808 -1.9909 1.0189 1.7939 -2.4451 -1.3230 3.6013 -1.9490 0.7335 3.1151 -2.4299 -1.5753 -4.3301 3.5601 -0.8820 -2.7529 3.7360 1.0524 -4.7835 2.2770 1.2218 6.4563 -2.8722 -0.3066 -1.1777 -0.2144 -0.0154 1.3021 -2.2230 0.0269 4.0809 -2.2107 -0.5015 -2.8837 1.5970 -0.2721
6.0877 -3.8599 0.5477 7.5731 -2.0525 0.3444 -1.2070 -0.4567 0.9931 -0.2389 -2.6220 -0.5842 -3.3025 4.3814 -0.3559 -5.1138 3.1712 0.8263 -2.8918 3.4483 1.9140 -4.0053 2.1259 -1.1476 -1.7963 2.4365 -0.0680 -3.6314 1.2160 1.1251 -0.9894 -1.4830 -1.0618 5.3903 -1.8800 -0.5075 -2.5140 0.2199 -0.8001 1.8813 -2.4410 0.6930 1.9267 -1.9106 -1.6643 3.3236 -2.2693 0.7231 3.2638 -1.7789 -1.6340 -4.4918 3.4429 -0.5408 -2.2601 3.7447 0.5574 -4.0931 2.5217 1.7543 6.3858 -2.5670 0.1656 -1.5478 -0.5690 -0.1845 1.2038 -2.2751 -0.4576 4.0194 -2.0149 -0.4060 -2.9721 1.4714 -0.2316
6.1393 -3.4112 1.0418 7.0726 -3.2679 -1.1196 -1.6752 -1.6895 -1.8110 -0.2726 -1.7594 0.5872 -3.0637 4.3578 0.2241 -4.9584 2.9263 0.9292 -2.7773 2.7624 2.1078 -3.8120 2.4754 -1.2402 -1.6467 2.3476 -0.0616 -3.5597 0.9016 0.6570 -0.9484 -0.5920 0.0739 5.2552 -1.9322 -0.5574 -2.3622 0.4813 -1.4479 2.0632 -1.8929 1.3398 1.6701 -1.4939 -1.0184 3.4714 -1.9986 1.0493 2.9851 -1.5644 -1.2810 -4.2744 3.5724 -0.2725 -2.0834 3.4230 0.9222 -3.9988 1.9786 1.6400 6.1704 -2.9141 -0.2472 -1.6744 -0.6781 -1.1052 1.1899 -1.6721 0.3435 3.9274 -1.8791 -0.2134 -2.8373 1.5192 -0.5404
5.1672 -4.4891 -1.4412 5.7627 -3.0992 -3.2365 -0.2358 1.0435 1.2329 0.7341 -1.3254 2.3570 -2.8284 3.9752 -0.7307 -4.6046 2.5730 -1.7530 -4.8651 3.3870 0.5742 -2.4098 1.5637 -1.1650 -2.6901 2.3921 1.1776 -4.4286 0.9669 0.1425 -0.4716 -1.2242 1.5598 5.1278 -2.1636 -1.1666 -2.2477 0.0150 0.7282 2.7556 -2.5796 1.6895 2.2468 -0.5730 0.4475 3.8664 -2.8012 0.7881 3.2508 -0.8080 -0.4160 -3.1004 2.8201 -1.6891 -3.3668 3.6516 0.6592 -5.1427 2.2199 -0.3695 5.3254 -3.2421 -2.0154 -0.9332 0.0293 1.1807 1.9295 -1.5383 1.4911 4.0801 -2.0015 -0.2783 -2.9214 1.2078 0.2330
6.6630 -3.6554 -0.3838 6.2338 -4.2443 -2.6224 -1.3006 -0.3621 0.7684 1.1664 -0.4896 1.9875 -4.7577 4.0392 0.3528 -4.8006 2.6462 -1.6947 -5.2991 1.6200 0.5140 -2.6165 3.4762 -0.8045 -3.1371 2.4698 1.3963 -3.1853 1.0748 -0.6768 0.6565 0.7001 1.3333 4.4563 -3.8496 -1.1529 -1.0466 1.8871 0.2668 3.3187 -1.6202 1.6022 1.7155 -1.6400 -0.2112 4.1540 -2.5010 0.8198 2.5207 -2.4170 -0.9556 -4.0998 3.8143 -1.0057 -4.6180 2.7897 1.2161 -4.6666 1.3825 -0.8533 5.8060 -3.8890 -1.4430 -0.6248 0.6678 0.7959 2.1302 -1.2189 1.1190 3.7902 -2.8937 -0.4182 -2.4588 2.2131 0.0501
6.4970 -2.0267 -1.8464 7.6367 -2.9738 -0.0117 -1.3697 0.6144 2.4244 0.0744 -1.4895 -0.1416 -3.6803 4.0110 -1.2503 -5.5435 2.7112 -0.2620 -3.9955 3.9737 1.2137 -3.5996 1.5138 -1.2678 -2.0656 2.7945 0.1880 -3.9447 1.4863 1.1853 -0.0917 -0.7075 1.0628 5.3783 -3.4228 -0.3211 -1.9936 0.3508 0.2078 2.1730 -1.8688 -1.3705 1.9965 -2.7920 0.8641 3.5430 -2.3164 -1.4095 3.2689 -3.2190 0.8196 -4.5133 2.7398 -1.3875 -2.9621 4.0231 0.0941 -4.8460 2.7135 1.0939 6.5400 -2.7817 -0.6899 -1.1742 0.1203 1.3120 1.4539 -2.0260 -0.2462 4.0970 -2.9333 -0.3468 -2.8792 1.5049 0.0857
6.7067 -2.3465 -1.0868 7.3803 -4.1894 0.2164 -0.2208 2.1522 1.4338 0.2870 -1.0261 -0.2174 -4.6437 3.9718 -0.7054 -5.6682 1.8197 -0.0313 -4.5865 3.2603 1.6775 -3.5577 1.8151 -1.3592 -2.5081 3.2833 0.3239 -3.5284 1.1088 1.0159 0.5092 0.1745 0.5553 5.1324 -3.9241 -0.3260 -1.4423 1.1580 -0.2703 2.4567 -1.5314 -1.3024 1.7662 -2.8737 0.5983 3.7102 -2.2472 -1.3056 2.9286 -3.5477 0.5785 -4.8965 2.5304 -1.1394 -3.8261 3.9955 0.5798 -4.8577 1.8184 1.2611 6.4394 -3.4831 -0.3477 -0.3853 1.2272 0.6353 1.5551 -1.7828 -0.3379 3.9746 -3.1855 -0.3738 -2.7252 1.8224 -0.0723
6.5316 -1.6244 1.0073 7.5705 -3.0826 -0.5288 -1.9751 0.3673 -2.4135 -0.1095 -1.6951 -0.0925 -3.5377 4.1642 -0.3629 -5.2378 2.9628 0.9838 -3.0954 3.6546 2.0274 -3.9893 1.7475 -0.7856 -1.8438 2.4516 0.2536 -3.5452 1.2436 1.5988 -0.6300 -1.1104 -1.3058 5.2920 -3.2558 -0.1517 -2.2757 0.0746 -0.1414 2.1797 -1.4609 0.7720 1.8636 -2.7710 -1.2444 3.5518 -1.9008 0.8014 3.1560 -3.1348 -1.2443 -4.6171 3.0875 -0.4034 -2.4601 3.7897 0.6483 -4.1741 2.5765 2.0070 6.5011 -2.6401 0.0717 -1.6498 -0.1766 -1.3564 1.3556 -1.9087 -0.1902 4.0376 -2.7052 -0.1642 -2.8987 1.3467 0.2140
6.7584 -3.2232 0.4961 6.6963 -5.2822 -0.6308 -0.7743 2.1468 -1.9887 1.0801 0.1643 0.4033 -4.5102 3.9359 -0.0343 -5.7078 1.7650 0.1286 -4.5869 2.7136 2.1293 -3.5828 1.9116 -1.1390 -2.4533 2.8764 0.8699 -3.6396 0.7008 1.0187 0.7012 0.8972 -0.7810 4.7059 -4.1234 -0.2062 -1.5543 0.8754 -0.2213 3.3449 -0.6321 -0.2653 1.6000 -2.2611 0.1300 4.2819 -1.7266 -0.4302 2.4780 -3.2674 -0.0115 -4.8651 2.6534 -0.7803 -3.7355 3.6148 1.2402 -4.9331 1.4205 1.3973 6.0823 -4.2266 -0.1684 -0.5634 1.3784 -1.0494 2.0550 -0.8883 0.0185 3.8965 -3.0072 -0.2440 -2.7744 1.5839 0.1183
3.8412 -5.0545 -1.0743 5.8116 -4.7626 -2.3152 0.1141 1.8412 0.3527 1.7030 0.3082 2.1292 -3.8505 3.8845 -0.3514 -4.8032 2.0218 -1.6981 -5.4670 2.3007 0.6754 -2.4208 1.9734 -1.0362 -3.0801 2.2581 1.3594 -4.0105 0.3939 0.0153 0.3216 0.0427 1.7887 4.6403 -2.8899 -1.5145 -1.6628 0.3867 0.6722 2.9487 -1.7923 1.6483 3.0761 0.0134 0.0450 3.7147 -2.6124 0.7290 3.7643 -0.7616 -0.8106 -3.5656 2.8810 -1.4645 -4.2338 3.1605 0.9352 -5.1797 1.2778 -0.4197 4.8253 -4.2570 -1.6243 -0.3713 0.8507 0.8985 2.5897 -0.5460 1.2936 4.0567 -2.1593 -0.4967 -2.7621 1.2409 0.2632
6.0179 -3.4645 -1.4238 7.3917 -1.7710 -0.5505 -1.7081 -1.8961 1.9777 -0.5023 -1.9469 -0.6115 -2.6075 3.0063 -1.6191 -4.7925 3.1235 -0.4401 -2.8192 4.3171 0.4828 -3.5100 0.9990 -0.4623 -1.5219 2.2031 0.4660 -3.7035 2.3022 1.6369 -1.0670 -0.7933 0.0529 5.1424 -1.9204 0.1075 -2.4336 0.2436 1.6245 1.7880 -2.0249 -1.5804 1.5699 -1.9082 0.8210 3.2315 -2.0333 -1.4091 2.9036 -1.9203 0.9731 -3.8789 2.2343 -1.2777 -1.8863 3.4404 -0.3465 -4.0865 3.5482 0.8440 6.2206 -2.3396 -0.6491 -1.7474 -0.8980 1.2543 0.9828 -1.9188 -0.5075 3.7931 -1.9851 -0.1815 -2.7768 1.4026 0.8183
3.3755 -3.6058 -2.6466 5.7079 -3.6689 -2.9217 -0.0746 1.4166 1.5469 1.1331 -0.8354 2.7871 -2.8597 3.7041 -1.0636 -4.3093 1.9134 -1.9969 -4.9413 3.0334 0.1240 -2.0860 1.3452 -1.0463 -2.7350 2.4749 1.0897 -4.1493 0.6712 0.1519 -0.1670 -0.8120 2.1525 4.7408 -2.1803 -1.3786 -1.9610 0.1467 1.0814 2.3802 -2.5676 1.5031 2.9041 -0.2377 1.1130 3.3060 -2.9143 0.4424 3.7336 -0.5654 0.1072 -2.8683 2.3889 -1.8366 -3.5092 3.5243 0.3049 -4.9558 1.7071 -0.6305 4.6526 -3.1941 -2.3180 -0.6824 0.3472 1.5896 2.1530 -1.2755 1.7979 3.9189 -1.9592 -0.2896 -2.7067 1.1430 0.3367
6.1101 -3.7813 -0.3688 6.5084 -2.9848 -2.5450 -0.2929 2.1434 2.1359 0.2787 -1.4173 1.8805 -3.5192 4.0581 -0.2488 -3.7493 2.3778 -2.0666 -5.2558 2.2827 -0.0968 -1.7729 2.3219 -0.5691 -3.2932 2.2310 1.4156 -3.4969 0.5505 -0.3973 0.2672 -0.0584 2.3715 4.3164 -3.0940 -1.6967 -1.5737 0.5244 1.0856 2.7038 -1.4362 1.2477 1.0540 -2.1847 -0.3536 3.7388 -1.8413 0.3155 2.0195 -2.5748 -1.2029 -2.7594 3.2364 -1.2858 -4.2837 3.1437 0.7037 -4.5010 1.4434 -1.1232 5.6862 -3.2265 -1.5609 -0.5170 0.9622 1.8685 1.4075 -1.6129 0.9327 3.4311 -2.4603 -0.8447 -2.5070 1.3969 0.4032
3.5655 -3.2456 -2.8745 5.1076 -4.9542 -2.4070 0.2144 1.4351 0.0591 1.8340 0.5207 2.2181 -3.6089 3.5406 -1.1306 -4.8864 1.4435 -1.5289 -5.2272 2.7198 0.5701 -2.4549 1.3428 -1.0842 -2.7904 2.6363 1.0307 -4.0434 0.5325 0.6323 0.3932 0.4211 2.1291 4.8391 -3.1645 -0.9045 -1.6444 0.4782 1.0597 1.9278 -1.6140 0.8643 3.9712 -0.4335 1.3677 2.6985 -2.5498 0.0727 4.6817 -1.2994 0.6230 -3.5553 2.1511 -1.7580 -3.8992 3.4417 0.3637 -5.1708 1.3201 -0.0346 4.5021 -3.8512 -2.0595 -0.3043 0.8452 1.0064 2.5268 -0.5704 1.4691 4.0257 -2.3826 -0.1062 -2.7025 1.2364 0.4222
5.5261 -0.8900 -2.0549 7.1832 -1.6085 -0.5386 -1.5760 0.3336 2.6648 -0.3893 -2.3605 0.5512 -2.8818 3.6944 -1.5625 -4.9664 2.8431 -0.5293 -3.2754 4.0080 0.8698 -3.2172 1.2342 -1.2915 -1.5380 2.4139 0.0883 -3.6456 1.5626 1.1248 -0.5409 -1.4273 1.6458 5.1306 -2.7005 -0.6077 -1.8804 0.0135 0.3877 1.4795 -2.2009 -1.0521 1.9710 -2.9963 1.1853 2.8922 -2.2469 -1.3409 3.2846 -3.0504 0.9089 -3.9104 2.5677 -1.5962 -2.2133 3.7519 -0.1935 -4.3221 2.8992 0.8509 5.9794 -1.6999 -1.0306 -1.3569 -0.3111 1.6369 1.0444 -2.4879 0.1865 3.7773 -2.6146 -0.3933 -2.5546 1.2729 0.0903
6.3819 -2.6567 0.1569 6.6269 -3.1213 -2.1431 -2.6406 -2.3721 1.2488 0.0122 -1.5846 1.4627 -1.4461 3.5027 0.2393 -3.2695 3.5550 -1.4399 -3.8033 3.7965 0.9711 -2.0893 1.4214 -0.9731 -2.6216 1.6792 1.4479 -4.4380 1.7129 -0.2399 -1.0199 -0.7890 0.8487 4.8473 -1.8221 -1.4219 -3.2379 -0.3728 0.2617 2.4365 -1.2166 1.3298 1.2803 -1.8564 -0.7033 3.6839 -1.3303 0.6166 2.4412 -1.9321 -1.3737 -1.9201 2.9343 -1.0942 -2.4558 3.1868 1.3363 -4.2958 3.2321 -0.3580 5.9638 -2.5827 -1.1579 -2.3254 -1.2558 0.8299 1.2808 -1.4930 0.7035 3.7031 -1.7086 -0.6763 -3.0947 1.0736 0.1280
5.6051 -0.1449 -0.9239 6.9694 -1.8637 -1.7532 -1.4021 -0.4023 1.7676 -0.3288 -2.8834 0.9719 -2.3323 4.0935 -0.8220 -4.6861 3.4339 -0.4199 -3.1107 3.6138 1.4954 -3.1343 1.8408 -1.5407 -1.5488 2.0680 0.3453 -3.9246 1.3883 0.7633 -1.2544 -2.0886 0.1970 5.1747 -2.3641 -0.3078 -2.3700 -0.1409 -0.3260 1.7005 -1.4581 0.7027 1.8002 -3.7642 -0.0143 3.0987 -1.3290 0.3574 3.0995 -3.6343 -0.3414 -3.5155 3.3151 -1.3913 -1.9293 3.5271 0.5345 -4.3098 2.8524 0.9396 5.9301 -1.4804 -1.0629 -1.6636 -0.8410 0.6475 1.0659 -2.6297 0.5185 3.7993 -2.3646 -0.1510 -2.7331 1.2564 -0.1862
3.9917 -4.9932 0.2890 6.3316 -4.8180 0.2861 -0.5523 -0.3527 -2.6257 1.2290 1.0745 -0.8975 -4.5130 3.5768 0.2577 -4.8954 1.6553 1.7692 -2.7793 2.9581 1.9389 -4.4373 1.2548 -0.6448 -2.3692 2.6001 -0.4808 -2.7460 0.6470 1.0569 -0.1391 0.7150 -0.6214 5.0090 -2.9006 0.5905 -2.3146 0.2822 -1.3095 2.1894 -1.2097 -1.2140 3.0349 0.1730 0.5772 3.1628 -2.2205 -0.8518 3.9508 -0.7588 0.8925 -5.1236 2.1823 0.3562 -3.0155 3.5229 0.5411 -3.4022 1.5723 2.0715 5.1557 -4.2519 0.3320 -0.9661 0.1952 -1.6030 2.1153 -0.0593 -0.5195 4.0223 -2.0287 0.1713 -2.9386 1.1838 -0.3621
6.2598 -2.2670 -1.4947 5.7378 -4.3691 -2.4123 -1.6636 -0.5753 1.5990 0.9378 -1.0422 2.6486 -4.4009 3.8623 -0.0954 -3.5138 2.8122 -2.1607 -4.9195 1.4816 -0.5984 -1.9722 3.3661 -0.2869 -3.3905 2.0554 1.2709 -2.4920 1.0012 -0.8125 0.3633 0.2503 2.3458 4.0293 -2.8853 -1.7589 -0.9995 1.5788 1.0504 3.0581 -1.9709 1.7502 1.2506 -1.5799 0.1991 3.8398 -2.4913 0.6426 1.9885 -2.0342 -0.8251 -3.2146 3.8172 -1.0529 -4.6435 2.4861 0.5164 -3.7450 1.4248 -1.5708 5.3590 -3.2458 -1.8684 -0.8486 0.3449 1.6712 1.8177 -1.4967 1.5346 3.3520 -2.5046 -0.6165 -2.1901 1.9812 0.3246
5.8911 -3.7171 1.2516 7.5570 -2.5700 0.0552 -0.8352 0.3580 -1.2847 -0.2121 -2.4029 -1.2431 -5.0883 3.2768 -0.0733 -3.7129 3.7752 1.9303 -2.7911 4.1960 -0.3394 -4.1719 1.4128 1.3030 -3.2844 1.8452 -0.9687 -1.8874 2.3433 1.0451 -1.0366 -1.7127 -0.2753 5.3250 -1.8485 -0.0427 -2.3759 0.0318 0.4142 2.0381 -3.4070 -0.9734 1.8066 -1.0496 -0.5178 3.4603 -3.2753 -0.7094 3.1130 -0.9410 -0.2338 -4.7535 2.8250 1.3454 -3.8363 3.2631 -0.9431 -2.4451 3.7624 1.0816 6.3024 -2.7309 0.3774 -1.3762 -0.3777 -0.4584 1.2282 -2.3388 -0.8607 3.9960 -2.0978 -0.3212 -2.9105 1.3798 0.4411
3.9527 -4.6232 -2.0510 5.8081 -5.4901 -0.9025 -0.4773 0.7061 1.3088 2.2399 1.3051 0.7410 -4.9654 3.4990 0.0270 -5.3319 1.2158 -0.8652 -4.7476 1.5303 1.5336 -3.2915 2.4910 -1.5186 -2.7384 2.8257 0.8742 -3.1105 0.5190 -0.0321 1.1097 1.6057 -0.1080 4.3861 -3.9318 0.1441 -1.1211 1.7965 -0.6352 3.2807 -0.4460 -0.7044 2.7590 -0.9927 1.5912 3.8540 -1.7692 -0.8519 3.3034 -2.2144 1.4494 -4.7820 2.6012 -1.1933 -4.2161 2.9265 1.2258 -4.5870 0.6166 0.3226 4.7860 -4.6792 -0.9510 -0.1891 1.3226 0.2831 2.7363 -0.0721 0.4673 3.8741 -2.6467 0.1742 -2.5323 1.9040 -0.3291
6.0921 -3.9628 -0.7143 6.5308 -2.6545 -2.6193 -1.8369 -0.9736 -0.0494 0.0148 -2.3371 1.4994 -4.9383 3.4823 0.0046 -2.6896 4.3732 -0.5316 -3.6707 2.5636 -1.9245 -3.0088 2.9665 1.5060 -4.0068 1.1817 0.1158 -1.7411 2.0846 -0.4317 -0.5896 -1.0781 1.8842 5.1174 -1.8415 -0.9320 -2.0768 0.6807 1.5560 2.4100 -2.8947 1.4026 1.5956 -1.2331 -0.1570 3.7001 -2.8090 0.7579 2.8022 -1.1477 -0.7438 -3.6476 4.0315 0.6064 -4.6451 2.2215 -0.8019 -2.3747 3.1246 -1.3483 5.9034 -2.8338 -1.4898 -1.5372 -0.4999 1.0475 1.3896 -2.1366 0.9659 3.8984 -2.0067 -0.3083 -2.6912 1.6991 0.7056
5.4916 -4.4854 0.5437 6.3002 -4.6948 -1.6521 1.2649 2.5161 0.5194 0.7232 -0.1271 1.5317 -5.0421 2.8881 0.8676 -4.9063 1.8151 -1.3617 -4.4453 0.4786 0.6888 -3.1648 3.4547 -0.6642 -2.7365 2.1372 1.3884 -2.6051 1.0533 -0.8717 -0.1052 0.6683 0.6583 4.2739 -3.5754 -1.2485 -0.9153 2.6777 -0.1728 3.0408 -0.8304 0.9920 1.2353 -1.7840 -0.3023 3.9578 -1.7108 0.2902 2.0893 -2.6021 -0.9396 -4.6505 3.1067 -0.5906 -4.2112 1.7632 1.4780 -4.0765 0.6760 -0.7785 5.4115 -4.2351 -0.8124 0.1593 1.9946 0.3722 1.7231 -0.8804 0.7267 3.5083 -2.6308 -0.5905 -2.3205 2.3266 -0.0718
5.6739 -1.5826 -2.1908 7.0600 -1.2730 -0.3093 -1.5282 -1.7177 2.3113 -0.6186 -2.1082 -0.3038 -2.5524 2.6748 -1.8051 -4.6359 3.1170 -0.5337 -2.5370 4.2847 0.0895 -3.4961 0.9239 -0.3037 -1.3872 2.1086 0.3135 -3.4722 2.5251 1.5861 -1.0206 -0.8378 0.2509 5.0226 -2.3714 -0.0727 -2.2937 0.3846 1.7817 1.5416 -2.6676 -1.3352 1.5586 -2.0189 0.9993 2.9838 -2.6955 -1.2999 2.9008 -2.0512 1.0307 -3.8392 2.0494 -1.2762 -1.7229 3.2330 -0.6542 -3.8233 3.6700 0.6337 5.9437 -1.6897 -0.8395 -1.6148 -0.7916 1.5014 0.8572 -2.2652 -0.2515 3.6539 -2.3532 -0.1814 -2.6542 1.4526 0.8589
6.0276 -3.3227 -0.1755 6.9841 -1.4857 -1.2857 -2.7506 -2.3709 -1.0900 -0.5833 -2.1916 0.8005 -2.7502 3.9768 -0.9476 -3.4836 3.5964 1.3857 -1.1207 3.1483 0.7414 -4.2477 2.0519 -0.4219 -1.8970 1.6541 -1.0798 -2.6464 1.2725 1.2897 -1.2975 -1.1094 0.1643 4.9292 -1.2546 -0.1848 -3.3523 -0.2331 -0.4961 1.5873 -2.9705 -0.1341 1.5320 -0.8589 1.0430 2.9902 -2.7289 -0.4269 2.8278 -0.6440 0.7696 -3.9115 3.5062 -0.0766 -1.5294 3.0892 -0.7270 -2.2726 2.7050 1.6375 5.9968 -2.0151 -0.6154 -2.4815 -1.3145 -0.5162 0.8707 -2.0437 0.5273 3.6099 -1.6085 0.0041 -3.0313 1.1518 -0.1855
3.1722 -4.4323 -1.7323 4.7217 -3.5915 -3.2976 -1.9558 -0.7658 2.0386 1.4430 0.4572 2.3650 -3.8351 3.7360 -0.4394 -3.5778 2.0657 -2.2514 -4.9420 1.5193 -0.2487 -1.6370 2.5980 -0.7775 -3.0125 2.0777 1.2105 -2.7550 0.3927 -0.6165 0.1719 -0.1827 2.6310 4.5653 -2.6107 -1.1964 -0.8839 0.9312 0.8758 2.2702 -1.7591 1.5792 3.1979 0.2556 0.5995 3.0218 -2.5330 0.6293 3.9278 -0.4722 -0.2635 -2.8700 3.1770 -1.4812 -4.2548 2.6362 0.5290 -3.9982 0.9486 -1.3023 4.1423 -3.5315 -2.1313 -0.9653 -0.0555 1.8548 2.2989 -0.4165 1.5232 3.7984 -1.9259 -0.2879 -2.0438 1.4818 0.1902
5.8749 -1.6636 0.2184 6.6332 -1.9091 -1.9884 -1.4160 -1.2931 3.1704 -0.8092 -2.5318 0.6476 -1.5733 3.5835 -1.0358 -3.2419 1.8960 -1.7833 -3.8925 3.6603 -0.1587 -1.3614 1.2375 -0.2984 -2.0344 2.9644 1.3335 -3.7032 1.2922 0.5810 -1.5708 -1.3277 0.8783 4.3417 -1.6656 -1.5620 -1.8467 0.6595 2.0567 1.6484 -2.7698 0.8120 0.7568 -1.4300 -0.9905 2.9677 -2.6150 0.2256 1.9844 -1.2608 -1.5057 -1.7701 2.1326 -1.4590 -2.4267 3.8966 0.1897 -4.1131 2.2072 -0.5702 5.6502 -1.7877 -1.1369 -1.6027 -0.6997 2.1062 0.5787 -2.2026 0.2254 3.1561 -1.8740 -0.8879 -2.2301 1.5007 0.9321
5.6234 -4.1183 -0.5064 6.5269 -3.0998 -2.4183 -0.6962 1.9293 2.7087 0.0738 -1.5122 1.8585 -4.4412 3.3225 0.4684 -3.3415 3.3703 -1.7623 -4.7958 1.4591 -1.1379 -1.9846 3.0162 0.2784 -3.4467 1.0907 0.9147 -2.3355 1.1405 -1.3019 0.0652 -0.2138 2.4957 4.3633 -2.5355 -1.7052 -1.0217 0.8082 0.7139 2.5313 -1.7978 1.4829 1.0546 -1.6829 -0.4292 3.6335 -2.0370 0.5693 2.0749 -1.9403 -1.2642 -3.1904 3.7504 -0.2932 -4.6574 1.8178 0.3388 -3.5393 1.8639 -1.9027 5.5548 -3.2225 -1.5550 -0.5854 0.9110 2.0249 1.2852 -1.6343 1.0031 3.4223 -2.1876 -0.7560 -2.1734 1.5020 0.1750
3.5717 -4.8006 -1.5512 4.6414 -3.7819 -3.3755 -1.0935 -0.1113 1.8746 1.6013 0.0437 2.7544 -4.6293 3.3383 -0.4164 -3.8812 1.8003 -2.2131 -4.8404 0.8795 -0.1084 -2.2001 3.0679 -0.8832 -3.1747 2.1618 1.2092 -2.4236 0.6149 -0.6103 0.8592 1.1027 2.1075 4.4872 -2.6568 -1.3167 -0.8020 1.8756 0.7171 1.6694 -1.6511 0.9353 3.7307 -0.5533 1.5694 2.3831 -2.3101 -0.1368 4.3936 -1.1964 0.5927 -3.5906 3.1248 -1.5134 -4.5704 2.2032 0.6006 -3.8181 0.6475 -1.2173 4.2125 -3.7308 -2.1434 -0.4118 0.8765 1.6000 2.3025 -0.7608 1.7198 3.7049 -2.1069 -0.3201 -2.1220 1.9232 0.1252
4.0666 -3.2966 -2.7062 6.1444 -2.2110 -2.8167 -2.3935 -1.0607 3.3642 0.2487 -1.3979 2.3917 -1.1970 3.1389 -0.7482 -2.8135 2.0563 -2.3014 -3.6221 3.6617 -0.5944 -1.7147 0.7218 -0.5413 -2.5155 2.3376 1.1977 -4.1205 1.2405 -0.3395 -0.7946 -0.6196 1.7717 4.4814 -1.4081 -1.3744 -3.0136 -0.0654 1.3883 1.8781 -2.6661 1.0159 2.0906 -0.2594 1.1113 2.9860 -2.6897 0.0778 3.1044 -0.2895 0.2321 -1.5171 1.8651 -1.5235 -2.3353 3.4848 0.2070 -3.9595 2.3784 -1.3468 4.9575 -2.3301 -2.2851 -2.0820 -0.5937 2.2678 1.4062 -1.4900 1.4658 3.5448 -1.5446 -0.3708 -2.8299 1.0376 0.4570
5.6672 -1.6718 0.8391 6.2726 -0.0316 -0.7455 -2.3625 -0.8503 2.3661 -0.8808 -3.0129 -0.1177 -1.3898 3.4688 -1.1142 -3.7686 3.3975 -0.4260 -1.9821 3.5025 1.2973 -2.7014 1.3628 -1.3994 -0.9186 1.4864 0.3087 -3.3172 1.4284 0.9983 -1.5266 -2.5453 1.0865 4.3876 -1.3327 -1.1061 -2.2299 -0.5658 0.0668 1.4894 -2.9007 0.5866 0.7615 -1.5112 -1.2654 2.8433 -2.5067 0.3031 2.0218 -1.1073 -1.4955 -2.7612 2.8940 -1.4559 -0.9625 3.0111 0.2759 -3.3650 2.9490 0.9733 5.4612 -0.9627 -0.3289 -2.0599 -1.2797 1.2515 0.4943 -2.4631 -0.2005 3.1179 -1.6481 -0.6977 -2.2908 0.8893 -0.0006
5.5140 -0.1493 0.6054 6.8352 -1.5577 -0.7303 -2.8160 -2.4611 -1.2043 -0.8167 -2.5553 0.8447 -1.3678 3.6592 -0.6488 -3.3549 3.6968 0.8304 -1.2307 2.6801 1.6362 -3.3163 2.1824 -1.1458 -1.1799 1.2126 -0.3658 -3.1878 1.2430 1.1418 -1.7568 -1.4863 0.6018 4.4946 -1.5915 -0.9363 -3.1281 -0.2267 -0.7993 1.5565 -2.0394 1.3633 0.8798 -2.0952 -0.9533 2.9271 -1.8508 0.9207 2.1475 -1.9055 -1.3558 -2.8900 3.5525 -0.6157 -0.7408 2.5562 0.1967 -2.7523 2.5932 1.6945 5.6593 -1.1493 -0.3356 -2.5728 -1.4653 -0.5186 0.5618 -2.1418 0.4629 3.2367 -1.7683 -0.3915 -2.7014 1.0677 -0.2972
4.0011 -3.9014 -2.4485 5.4740 -2.2854 -3.3056 -1.5707 -0.9216 1.3203 0.7288 -1.2629 2.8938 -4.8608 2.7085 -0.6026 -2.8096 3.6597 -1.6164 -3.4298 1.2926 -2.0672 -2.8782 3.2062 0.8306 -3.5381 0.8680 0.3749 -1.4595 1.8143 -0.6541 0.0989 0.0101 2.6120 4.6822 -2.1080 -1.1012 -1.5633 1.3560 1.7410 1.3301 -2.0108 0.5827 3.1009 -1.4206 2.1167 2.3273 -2.1761 -0.4575 4.0221 -1.6050 1.1559 -3.6973 3.6700 -0.3754 -4.3407 1.2962 -0.8437 -2.2647 2.2571 -1.8694 4.7110 -2.7221 -2.3402 -1.0588 0.0652 1.8492 1.6947 -1.5927 1.8093 3.6401 -1.9924 -0.2012 -2.3396 1.7949 0.5966
4.4892 -0.4011 -2.4506 6.3825 -0.8194 -1.1067 -2.0493 -0.3925 2.7329 -0.8006 -3.1354 0.7333 -1.6229 3.0197 -1.7958 -3.7865 3.1670 -0.5982 -1.6627 3.6147 0.6146 -2.9075 0.9379 -1.2979 -0.7941 1.3992 -0.1006 -2.9789 1.5669 1.0937 -1.3929 -2.3705 1.8099 4.2652 -0.8379 -0.1512 -2.0793 -0.6203 0.4228 0.7344 -1.8242 -0.6916 1.6541 -2.9542 1.2466 2.0154 -1.1987 -0.8960 2.8628 -2.4132 1.0205 -3.0202 2.4169 -1.6842 -0.8840 2.8778 -0.4694 -3.0690 3.0408 0.7394 5.0906 -0.7184 -1.2472 -1.8511 -1.0683 1.7217 0.5383 -2.5961 0.3905 3.0525 -1.4755 -0.0816 -2.1859 0.7847 0.0451
5.1386 -2.8928 -1.8487 5.7607 -0.7404 -2.5465 -1.9055 -1.5431 0.1629 -0.2886 -2.7723 2.1765 -4.0346 3.0724 -1.0883 -1.9577 4.1259 -0.2386 -1.8306 2.4444 -2.0650 -3.1770 2.4886 1.1814 -3.0877 0.8368 -0.6577 -0.9820 1.8820 0.1996 -1.1289 -1.6017 2.3339 4.1883 -0.9935 -0.8305 -2.2197 0.2770 1.5680 1.2255 -3.0347 0.2267 1.7973 -1.3773 1.8922 2.3547 -2.5796 -0.5627 2.8288 -0.9494 1.1464 -3.3387 3.6130 0.1579 -3.2212 1.9366 -1.6976 -1.1206 2.9967 -0.8328 5.0372 -1.5182 -1.7862 -1.7645 -1.0000 1.2579 0.9353 -2.4356 1.3958 3.1486 -1.5751 -0.1346 -2.3577 1.3404 0.5899
4.7403 0.0575 1.2498 6.6875 -0.7375 0.2026 -3.6821 -2.3892 -0.4112 -0.8895 -2.5190 -0.8616 -2.4311 3.8339 -0.6755 -1.9192 3.4923 1.7218 -0.3529 2.6345 -0.0135 -3.7738 2.2045 0.6532 -2.2148 1.4011 -1.0916 -1.6998 1.0591 1.3465 -1.5876 -1.4906 -0.1320 4.6673 -1.9012 -0.0369 -3.4862 -0.2006 0.2611 1.1589 -1.0935 -1.0631 1.3879 -3.4171 -0.4339 2.5835 -0.9261 -0.8491 2.7108 -3.2621 -0.2665 -3.0449 3.5514 0.6929 -1.4593 2.7228 -1.0598 -0.9412 2.3769 1.3700 5.4056 -0.8312 0.4294 -2.9669 -1.4247 -0.1355 0.5712 -2.2729 -0.7885 3.3366 -1.9499 -0.3933 -2.8001 1.0816 0.2847
4.1657 -0.5099 -2.5002 6.0228 0.1266 -1.1968 -3.4898 -2.4694 1.0310 -0.7272 -2.5046 1.5254 -1.6123 2.7644 -1.9773 -2.3071 3.8934 0.1149 -0.2266 2.5356 0.0761 -3.6001 1.9255 -0.7102 -1.5182 0.6042 -0.7927 -2.2146 1.7358 1.3335 -1.5273 -1.3144 1.3522 4.4801 -1.3882 -0.3391 -3.4173 -0.2234 0.5080 0.8945 -2.3698 -0.3446 1.6991 -2.0444 1.9214 2.2123 -2.0293 -0.8218 2.9306 -1.7510 1.4715 -2.8157 3.1751 -1.1323 -0.7094 1.8281 -1.1847 -1.4123 2.9678 0.9323 4.9070 -0.5347 -1.3340 -2.8551 -1.4142 0.9632 0.6300 -2.2968 0.9706 3.1931 -1.6858 0.0370 -2.7021 0.9795 0.0967
1.4581 -2.3341 -2.8800 3.5421 -1.6928 -3.7708 -0.4872 2.4890 2.5487 0.8583 -0.7775 3.4480 -2.6050 2.9677 -1.3596 -1.9976 0.8567 -2.5111 -4.0772 0.9733 -1.1610 -0.6731 1.6174 -0.5482 -2.7727 1.7440 0.7922 -2.1416 -0.3675 -0.3500 0.5414 0.6368 3.4072 3.3245 -2.0448 -1.4765 -0.9015 0.4222 1.5943 1.0698 -2.2299 1.4707 2.7120 -0.4658 1.7539 1.6694 -2.5337 0.1933 3.2671 -0.7557 0.5660 -1.4408 2.0785 -1.7868 -3.5449 2.2027 -0.4344 -2.9240 0.0698 -1.5884 2.7856 -1.9728 -2.7454 -0.3061 1.2709 2.5157 1.5448 -1.2067 2.2018 2.6971 -1.7993 -0.2785 -1.5985 0.8515 0.3990

>  <OB_ATOM_TYPES> (1ejnA1)
N.pl3 N.pl3 O.2 C.3 C.3 C.3 C.3 C.3 C.3 C.3 N.am N.pl3 N.am C.ar C.ar C.ar C.ar C.3 C.3 C.3 C.cat C.2 C.ar C.ar C.3

>  <ENSEMBLE_RMSD> (1ejnA1)
0.000 0.865 0.869 0.919 1.044 1.044 1.070 1.137 1.190 1.218 1.263 1.415 1.423 1.472 1.533 1.536 1.550 1.592 1.641 1.646 1.821 1.850 1.860 1.876 1.911 1.916 1.957 1.971 1.978 1.983 1.983 2.017 2.046 2.065 2.079 2.098 2.101 2.154 2.176 2.310 2.331 2.426 2.509 2.662 2.675 2.966 2.976 3.204

$$$$
