
 OpenBabel03071213D

 32 33  0  0  0  0  0  0  0  0999 V2000
   36.1110   14.4050   42.2320 C   0  0  0  0  0
   33.8640   15.4850   42.2850 C   0  0  0  0  0
   41.4070   14.9900   38.4870 N   0  0  0  0  0
   40.3210   25.6100   38.3690 F   0  0  0  0  0
   41.6550   24.6140   39.6510 F   0  0  0  0  0
   42.3640   25.4820   37.8480 F   0  0  0  0  0
   36.9440   17.9560   36.2220 O   0  0  0  0  0
   40.5080   23.4910   36.4290 O   0  0  0  0  0
   38.7000   21.3740   38.2770 O   0  0  0  0  0
   40.6760   16.2380   38.4700 C   0  0  0  0  0
   41.5880   17.4430   38.7380 C   0  0  0  0  0
   40.6820   18.6700   38.8800 C   0  0  0  0  0
   38.4480   19.9870   33.9860 C   0  0  0  0  0
   41.4240   19.9850   38.7160 C   0  0  0  0  0
   37.1460   20.4590   34.6080 C   0  0  0  0  0
   39.5430   20.4350   34.9620 C   0  0  0  0  0
   41.3550   22.2730   38.1070 N   0  0  0  0  0
   36.5850   19.3630   38.0670 N   0  0  0  0  0
   36.6700   17.1060   38.9640 C   0  0  0  0  0
   35.4700   18.8690   40.1080 C   0  0  0  0  0
   36.3750   16.2270   40.0160 C   0  0  0  0  0
   35.1810   17.9950   41.1620 C   0  0  0  0  0
   35.3340   15.7380   42.3120 C   0  0  0  0  0
   40.9500   20.9670   37.6240 C   0  0  0  0  0
   37.3820   20.3770   36.1140 C   0  0  0  0  0
   38.8360   20.5900   36.2350 N   0  0  0  0  0
   36.9250   19.0660   36.7880 C   0  0  0  0  0
   41.0260   23.4570   37.5520 C   0  0  0  0  0
   39.4240   20.9590   37.3850 C   0  0  0  0  0
   36.2230   18.4440   39.0040 C   0  0  0  0  0
   35.6300   16.6700   41.1260 C   0  0  0  0  0
   41.3570   24.7770   38.3540 C   0  0  0  0  0
  1 23  1  0  0  0
  2 23  1  0  0  0
  3 10  1  0  0  0
  4 32  1  0  0  0
  5 32  1  0  0  0
  6 32  1  0  0  0
  7 27  2  0  0  0
  8 28  2  0  0  0
  9 29  2  0  0  0
 10 11  1  0  0  0
 11 12  1  0  0  0
 12 14  1  0  0  0
 13 15  1  0  0  0
 13 16  1  0  0  0
 14 24  1  0  0  0
 15 25  1  0  0  0
 16 26  1  0  0  0
 17 24  1  0  0  0
 17 28  1  0  0  0
 18 27  1  0  0  0
 18 30  1  0  0  0
 19 21  1  0  0  0
 19 30  2  0  0  0
 20 22  2  0  0  0
 20 30  1  0  0  0
 21 31  2  0  0  0
 22 31  1  0  0  0
 23 31  1  0  0  0
 24 29  1  0  0  0
 25 26  1  0  0  0
 25 27  1  0  0  0
 26 29  1  0  0  0
 28 32  1  0  0  0
M  END
>  <MOLID> (1elaA1)
1elaA1

>  <SMILES_CANONICAL> (1elaA1)
NCCCC[C@@H](C(=O)N1CCC[C@H]1C(=O)Nc1ccc(cc1)C(C)C)NC(=O)C(F)(F)F	

>  <FINGERPRINT> (1elaA1)
0000000000000001010000000000001000000001000000000011100000000000000000000001000000000001001000000100010000000001000001100000000000100000000000000000000000000000000000000000000000100000110100000000000000000000000000000000000000100000000000000000000000001000000000000000000000000000000000001000000000001000000010101100000000001000001010000000000000000100010000000000000110110000000000000000011000000000100000000001101000000000010100001010000000000001100000000000001000000000010000000000000000000000000000000000000000000000000001000000000000000000000000100000000000000000000000000000100000000000001000000000000000000000000000000000001000000101010000000001000000000000000000000011100000000100000001100011000000100000000000000010000000000011000000100111000000000000000110100000000000000000000000000000000010000000000000000000000000000000000000000000000000000000000000001001000000000000000000001000000000001000000000001000000000000000000000000000011000000000000000110010000000000000010000000000000000000000000000000010011000000000

>  <MACCS166> (1elaA1)
000000000000000000000000000000000000000001001000010000000000000000000000011100100111100001110011001100010111011100001101110000011010111111011100011111101111011110111000

>  <OB_MW> (1elaA1)
456.235

>  <OB_logP> (1elaA1)
4.0177

>  <OB_PSA> (1elaA1)
104.53

>  <OB_MR> (1elaA1)
119.009

>  <OB_ATOMIC_CHARGES> (1elaA1)
0.0046849662 0.0046849662 -0.1313873305 -0.162004199 -0.162004199 -0.162004199 -0.2711931656 -0.2641877288 -0.2730105375 0.1093073196 0.0205711131 0.0038061138 0.0237289257 0.0310930909 0.0310412603 0.0939368484 -0.1907591635 -0.1778236486 0.0162751139 0.0162751139 -0.0029419865 -0.0029419865 0.0223537966 0.1714935689 0.1538969719 -0.2715525002 0.2636362865 0.3371086939 0.2458080708 0.0733971479 -0.022420035 0.4711313114

>  <MCT_HBD> (1elaA1)
3

>  <MCT_HBA> (1elaA1)
7

>  <ENSEMBLE_TOTAL> (1elaA1)
50

>  <ENSEMBLE_COORDS> (1elaA1)
-2.5173 -5.2669 3.8858 -4.7643 -4.1869 3.9388 2.7787 -4.6819 0.1408 1.6927 5.9381 0.0228 3.0267 4.9421 1.3048 3.7357 5.8101 -0.4982 -1.6843 -1.7159 -2.1242 1.8798 3.8191 -1.9172 0.0717 1.7021 -0.0692 2.0477 -3.4339 0.1238 2.9597 -2.2289 0.3918 2.0537 -1.0019 0.5338 -0.1803 0.3151 -4.3602 2.7957 0.3131 0.3698 -1.4823 0.7871 -3.7382 0.9147 0.7631 -3.3842 2.7267 2.6011 -0.2392 -2.0433 -0.3089 -0.2792 -1.9583 -2.5659 0.6178 -3.1583 -0.8029 1.7618 -2.2533 -3.4449 1.6698 -3.4473 -1.6769 2.8158 -3.2943 -3.9339 3.9658 2.3217 1.2951 -0.7222 -1.2463 0.7051 -2.2322 0.2077 0.9181 -2.1112 -1.7033 -0.6059 -1.5582 2.3977 3.7851 -0.7942 0.7957 1.2871 -0.9612 -2.4053 -1.2279 0.6578 -2.9983 -3.0019 2.7798 2.7287 5.1051 0.0078
-4.6906 -3.6781 5.1159 -3.7701 -5.6930 4.0089 3.3812 -3.6635 0.3591 3.6567 6.4082 -0.2079 2.1241 5.3315 0.9056 4.2001 4.6654 0.9793 -0.2537 -1.1934 -0.1756 3.0405 4.6860 -2.1869 0.3277 2.1789 -0.0623 2.7537 -2.8842 -0.6924 3.5650 -1.6297 -0.8853 2.7691 -0.6037 -1.6523 -0.6165 -0.3407 -3.8139 3.2010 0.7611 -1.1894 -1.8277 -0.0444 -2.9470 0.4489 0.6159 -3.3116 2.7259 2.9971 -0.6298 -2.5741 -0.9524 -0.2165 -2.1599 -2.2292 1.7579 -4.3284 -2.3330 0.6907 -2.6526 -3.1156 2.7898 -4.7979 -3.1348 1.6650 -4.5418 -4.4105 3.8032 2.2707 1.9175 -1.4900 -1.2652 0.4602 -1.6255 0.1054 0.8438 -1.9219 -1.2741 -0.6670 -0.6102 2.9962 4.2827 -1.0300 0.8211 1.6709 -1.0713 -2.9495 -1.8697 0.7284 -3.9290 -3.5440 2.7601 3.2438 5.1676 0.1558
-5.0450 -5.6205 3.6483 -5.8845 -3.4548 4.5244 4.0814 -3.7052 0.2666 3.5786 4.6097 1.1375 4.3160 5.8500 -0.4946 2.3498 6.2296 0.3648 -0.1387 -1.2824 -0.0026 1.9764 4.7535 -2.0014 0.6430 1.7974 0.1625 3.5449 -2.9351 -0.8404 3.8408 -1.4823 -0.5756 3.0528 -0.6132 -1.5226 -0.7348 0.2049 -3.9182 3.4631 0.8189 -1.3052 -1.7025 -0.1701 -2.8153 0.5670 0.5685 -3.2362 2.8129 3.0090 -0.7249 -2.4567 -1.1239 -0.1944 -2.2702 -2.0418 1.9976 -4.1221 -2.6820 0.5763 -2.8451 -2.8421 3.0601 -4.6786 -3.3911 1.5760 -4.6820 -4.1968 3.9927 2.3892 1.8671 -1.5139 -1.1119 0.3488 -1.5143 0.2664 0.6869 -1.8250 -1.1457 -0.7832 -0.4984 2.5888 4.3287 -1.0263 1.0277 1.4599 -0.9579 -2.8639 -1.9821 0.7910 -4.0220 -3.4686 2.8753 3.2051 5.2427 -0.0060
-5.0728 -5.8975 3.2335 -4.4820 -4.1795 4.9281 2.7657 -1.9151 1.7350 5.0180 4.8191 0.0122 3.5454 6.4084 -0.2252 3.1873 4.8012 1.1977 -0.2538 -1.0876 -0.1750 2.8689 4.7174 -2.2596 0.1412 2.3379 -0.1543 2.8777 -2.4407 0.3858 3.5212 -1.3949 -0.4921 2.4630 -0.5133 -1.1090 -0.8148 -0.2037 -3.8736 3.0503 0.8268 -1.4589 -1.9900 -0.0352 -2.9262 0.2282 0.7778 -3.3746 2.6165 3.0437 -0.6748 -2.5807 -1.0601 -0.2191 -1.9610 -2.8635 1.2355 -4.2757 -2.1885 1.0612 -2.3454 -3.8423 2.2305 -4.6388 -3.1071 1.9757 -4.0324 -4.9000 3.6800 2.1006 2.0042 -1.5399 -1.3989 0.4787 -1.6209 -0.0594 0.9296 -1.9637 -1.3150 -0.6506 -0.6104 3.0150 4.2823 -1.1219 0.6468 1.7808 -1.1306 -2.8771 -2.0413 0.6902 -3.6335 -3.9579 2.6011 3.6855 5.0713 -0.0367
-5.5274 -5.3957 3.0222 -4.0834 -4.4085 4.7819 4.2595 -2.9871 1.6462 3.5125 6.1198 0.3291 4.8123 4.4502 -0.1894 3.4809 5.3066 -1.6909 -0.2939 -1.4028 -0.8750 1.7879 4.1752 1.0128 2.1728 1.3780 -2.9807 3.5622 -2.4267 0.5041 3.5441 -0.9270 0.6587 2.6097 -0.3317 -0.3591 -1.8370 0.1991 -3.7516 1.8395 0.8171 0.2486 -2.3311 0.8318 -2.4614 -0.3587 0.5291 -3.7910 2.4536 2.9111 -0.8151 -2.3053 -0.6456 0.0304 -2.1363 -2.9344 0.7512 -3.9657 -1.5550 1.5172 -2.6174 -3.9994 1.6113 -4.4184 -2.5440 2.3108 -4.1534 -4.8602 3.3426 1.4322 1.8888 -0.7451 -1.1367 0.7826 -1.5140 0.0085 0.8205 -2.4210 -1.1745 -0.5532 -0.7726 2.4984 3.9991 0.0285 1.2578 1.3517 -2.1547 -2.7602 -1.7412 0.7208 -3.7030 -3.8120 2.3854 3.5704 4.9638 -0.3804
-3.4596 -4.4233 4.5454 -5.4834 -4.4862 3.1163 5.0796 -3.7583 -0.2699 2.0955 4.3709 1.5328 2.0359 5.6709 -0.2160 0.4281 4.2465 0.1323 -0.6069 -1.3826 -1.2212 3.6240 3.6096 -1.0793 2.4556 0.3221 -3.4304 3.9327 -3.3641 0.5291 3.8902 -1.8580 0.6233 3.1834 -1.2956 -0.5841 -1.6868 1.3183 -3.6170 2.2622 -0.1732 -0.1806 -1.7717 1.6578 -2.1403 -0.2527 0.9023 -3.8729 1.8627 2.1847 -0.5833 -1.7354 -0.0248 0.3063 -2.4633 -2.2587 0.7725 -3.1251 -0.4422 2.2254 -3.1369 -3.1822 1.6598 -3.7611 -1.2971 3.0478 -4.4455 -3.5947 3.7564 2.3898 0.9764 -1.1498 -0.5596 1.0202 -1.4836 0.3640 0.7549 -2.5745 -0.9685 -0.2796 -0.8220 2.5347 3.3828 -0.5639 1.7386 0.6576 -2.4826 -2.4360 -0.9407 1.0448 -3.7587 -2.7253 2.7636 1.7740 4.4117 0.2154
-4.0992 -3.4277 4.1994 -1.7397 -3.0241 4.8479 2.3706 -4.1849 1.1298 0.6355 3.1645 2.0281 1.7727 4.8132 1.1737 0.0398 4.0293 0.1140 -1.2630 -1.0405 -2.4170 3.2284 2.8429 0.1150 2.7032 0.2640 -3.3276 3.2870 -3.1705 1.6210 3.3144 -2.0007 0.6647 2.0985 -1.1131 0.8110 -1.1536 1.5740 -4.6406 1.5159 -0.8115 -0.5527 -1.5991 1.9861 -3.2487 0.3202 1.2331 -4.5015 1.3155 1.6386 -0.3926 -1.8205 0.2361 -0.5426 -1.9306 -2.0234 0.2433 -2.4084 -0.1834 1.7414 -2.1675 -2.9424 1.3373 -2.6480 -1.0351 2.7534 -2.6707 -3.3837 3.7138 1.9432 0.5404 -1.0877 -0.6428 1.2892 -2.2998 0.5159 0.9371 -3.0958 -1.2680 0.0148 -1.7919 2.0112 2.6908 0.1571 1.7579 0.5866 -2.6014 -2.0233 -0.6945 0.4371 -2.5093 -2.4718 2.5509 1.1137 3.6666 0.8613
-2.3954 -4.7378 4.1810 -4.5761 -4.9492 3.0228 2.9299 -1.6163 3.3232 2.6270 3.1364 1.7808 2.8180 4.9733 0.6240 0.9241 3.9028 0.6535 -0.9214 -1.1814 -1.8509 3.8141 3.1063 -1.1030 1.9669 0.7143 -4.1232 3.5060 -1.9656 2.0379 2.4755 -1.6867 0.9752 2.9822 -0.6291 0.0269 -2.2045 1.4645 -3.8143 1.9540 -0.4392 -1.0588 -2.1467 1.8368 -2.3435 -0.7526 1.3508 -4.2367 1.7815 2.0082 -0.9492 -1.6918 -0.0083 0.0164 -2.1199 -2.3207 0.4542 -2.7719 -0.6440 2.0711 -2.5835 -3.3455 1.3627 -3.2044 -1.5952 2.9199 -3.5568 -3.9823 3.5791 2.1214 0.8797 -1.7665 -0.8464 1.2333 -1.8301 -0.0161 1.0868 -3.0182 -1.1575 -0.1330 -1.2579 2.7232 2.9349 -0.5684 1.3509 0.8963 -3.0686 -2.2016 -1.0191 0.7861 -3.0982 -3.0029 2.5587 2.2703 3.7319 0.6156
-5.0527 -3.4039 4.2006 -2.8920 -2.8305 5.2817 4.8903 -4.1053 0.3198 1.1796 4.9069 0.1097 0.0044 3.2836 0.9718 1.6609 4.1425 2.0936 -0.7241 -1.3593 -1.7246 3.3854 2.6921 0.5682 2.4895 0.4113 -3.6487 4.8689 -2.6649 0.1449 3.4508 -2.1802 0.3216 3.0514 -1.3665 -0.8821 -1.4611 1.7527 -4.2576 1.9967 -0.3521 -0.5093 -1.9694 1.4287 -2.8684 -0.1275 1.0474 -4.3752 1.5914 2.0608 -0.7587 -1.9139 0.0147 -0.2545 -1.9648 -2.1529 0.7658 -3.1808 -0.3100 1.7555 -2.4039 -2.9948 1.8594 -3.5910 -1.0901 2.7716 -3.5580 -3.3096 4.0144 2.1626 0.8882 -1.3535 -0.7473 1.0389 -2.0471 0.3118 0.8036 -3.0198 -1.1014 -0.2553 -1.3457 2.2094 2.7863 0.2329 1.6661 0.6871 -2.7700 -2.3213 -0.8562 0.7169 -3.1756 -2.4857 2.8373 1.2657 3.7725 0.8494
-5.7055 -4.1780 4.3443 -4.3420 -2.3781 5.3712 6.1128 -2.2370 -0.6398 3.4501 2.9590 1.8173 4.3902 4.7876 1.1044 2.3223 4.8251 1.7858 -0.4538 -1.6489 -0.6821 2.9206 4.6265 -1.2150 -0.4377 1.9825 -0.6874 4.7134 -1.8586 -0.6784 4.5753 -0.5208 -1.3644 3.1761 -0.0076 -1.1263 -0.7419 -0.3401 -4.4965 2.7937 1.0118 -2.1718 -1.7875 -0.7995 -3.4998 0.4171 0.1870 -3.6722 2.1297 2.5936 -0.4307 -2.7665 -1.3567 -0.6480 -2.3328 -2.7990 1.2112 -4.4232 -1.5908 1.0884 -2.7503 -3.3446 2.4871 -4.8247 -2.1163 2.2607 -4.3610 -3.4915 4.3512 1.7416 1.9946 -1.6990 -1.4741 -0.0731 -2.2023 -0.1157 0.4377 -2.3475 -1.4746 -1.1011 -1.0879 2.7607 3.8117 -0.3099 0.3158 1.4628 -1.5184 -3.1067 -1.9110 0.5585 -3.9480 -3.0134 3.0040 3.2266 4.0861 1.0933
-5.8978 -6.2599 2.2299 -5.1883 -5.1747 4.3489 4.6114 -0.4004 2.5653 4.7523 4.0049 0.2466 5.3478 5.2629 -1.4269 3.6275 5.8168 -0.2095 -0.4995 -1.3459 -0.0612 3.1988 4.3400 -2.8677 0.7490 1.8918 0.3406 4.0311 -0.9459 1.3531 3.9132 0.1602 0.3345 2.9783 -0.2817 -0.7644 -1.7433 0.3774 -3.2237 2.9625 0.7153 -1.8994 -2.5217 0.7446 -1.9730 -0.3277 0.8529 -2.9515 2.7126 2.9788 -1.0538 -2.7358 -0.9092 0.4276 -2.3718 -3.1144 1.2932 -4.6179 -2.2384 1.1312 -2.9091 -4.2995 1.9321 -5.1165 -3.3252 1.7503 -4.7744 -5.5518 2.9468 2.0202 1.8916 -1.7151 -1.5015 0.7122 -0.8474 -0.2194 0.9144 -1.5071 -1.5036 -0.6443 -0.1559 3.3628 4.0046 -1.6985 0.8051 1.5766 -0.8494 -3.1861 -2.1199 0.8909 -4.2274 -4.3955 2.1862 4.2692 4.7616 -0.7726
-6.3157 -5.0107 3.6189 -5.4758 -3.2950 5.2091 7.4947 -1.0372 -1.2647 4.6923 4.6688 0.0602 2.7897 5.6296 0.5169 3.3370 3.7760 1.5173 -0.6611 -1.2473 0.1372 2.2393 4.2118 -1.7645 0.1591 1.9830 -0.1684 6.4279 -0.0592 -1.3787 5.1155 -0.7507 -1.1029 4.0296 -0.1667 -1.9742 -0.8645 -0.7247 -3.7529 2.7531 -0.0265 -1.1755 -2.0631 -0.4171 -2.8719 0.2306 0.2003 -3.2621 2.7791 2.3003 -0.5675 -2.9640 -0.9700 -0.1152 -2.7128 -2.7501 1.4667 -4.8442 -1.6315 1.2367 -3.2786 -3.5582 2.5259 -5.3802 -2.3980 2.2050 -5.1335 -4.1660 4.0250 2.1284 1.3316 -1.4226 -1.5062 0.2070 -1.5998 -0.1020 0.4560 -1.8775 -1.6307 -0.7670 -0.4438 2.7350 3.6588 -0.7875 0.6438 1.3083 -1.0773 -3.4454 -1.7918 0.8691 -4.5614 -3.3885 2.8943 3.3843 4.4246 0.3249
-6.3584 -3.8887 4.4136 -5.2649 -1.8774 5.3744 5.7882 -0.8626 -4.1065 2.9733 3.8404 2.0477 3.8693 5.4719 0.9197 1.7057 5.2231 0.9334 -0.4261 -1.9913 -0.1174 3.7842 3.8444 -1.2213 -0.1615 1.3042 -0.0420 6.0737 -0.7527 -2.6867 4.7798 -0.8433 -1.9131 4.0795 0.4959 -1.9100 -0.2147 -0.8812 -4.0716 2.9804 0.5007 -0.8747 -1.3031 -1.3898 -3.1459 0.8167 -0.2245 -3.1729 2.0327 2.6509 -0.2793 -2.7157 -1.6691 -0.4213 -2.5914 -2.8363 1.6589 -4.6067 -1.6341 1.0768 -3.2060 -3.2090 2.9163 -5.1943 -2.0102 2.2286 -5.0701 -3.1103 4.5256 1.9365 1.5462 -1.2195 -1.2021 -0.5399 -1.8893 0.1566 -0.0144 -1.8999 -1.3710 -1.4699 -0.7035 2.9711 3.6569 -0.3222 0.5478 0.9566 -0.9889 -3.2328 -2.0249 0.7968 -4.4565 -2.8038 3.2052 2.8798 4.5424 0.8890
-5.8761 -4.8451 4.1750 -6.5160 -2.5115 4.7550 5.1183 -1.2271 -4.3273 3.9265 5.2338 0.3214 1.7901 5.6504 0.4099 2.6439 4.1012 1.6785 -0.3198 -1.3743 0.5663 1.9279 4.0021 -1.7167 0.3458 1.6381 -0.1294 5.8496 -0.6109 -3.2347 4.9282 0.3840 -2.5781 4.7703 0.0902 -1.1050 -0.1604 -1.0941 -3.6855 3.3106 0.0099 -0.7072 -1.2671 -1.3039 -2.6687 1.0127 -0.5189 -2.9120 2.8753 2.3826 -0.3550 -2.5751 -1.1856 0.0143 -2.5714 -2.0023 2.2648 -4.5513 -2.2380 0.9010 -3.2943 -2.5967 3.3711 -5.2321 -2.7710 1.9329 -5.3793 -3.4361 4.3880 2.4992 1.2186 -1.1434 -0.9536 -0.3480 -1.5329 0.4740 -0.0922 -1.6366 -1.2140 -1.0436 -0.2085 2.4623 3.6629 -0.6638 1.0174 0.9560 -0.9066 -3.1601 -1.8456 1.0638 -4.5896 -2.9335 3.2313 2.7079 4.6485 0.4382
-3.2959 -5.2612 3.8497 -0.9823 -4.4776 4.2378 0.5787 -0.5858 3.7145 3.7086 4.3485 1.4555 5.3181 3.1091 0.6798 4.1624 4.3569 -0.6769 -0.4268 -1.5091 -2.2127 3.1436 1.4400 1.0003 1.9389 1.6252 -3.2610 -0.1126 0.5572 3.1472 0.2075 0.6675 1.6722 -0.2407 2.0208 1.1656 -1.9188 0.6195 -4.7146 -0.1761 2.2177 -0.3366 -2.5903 0.7183 -3.3563 -0.5159 1.1580 -4.4956 2.1940 2.5740 -0.7848 -2.2251 -0.9828 -0.8196 -1.6291 -3.1989 -0.1595 -2.7707 -1.7367 1.3965 -1.5602 -4.2096 0.8762 -2.7234 -2.6795 2.3537 -1.9701 -4.9496 3.1977 1.0657 1.6726 -1.0145 -1.4604 0.6760 -2.3350 -0.2708 1.0726 -3.0662 -1.2903 -0.7347 -1.8142 3.1017 2.4078 0.2425 0.9423 1.4909 -2.5405 -2.1670 -1.9928 0.0998 -2.0963 -3.9682 2.0869 4.0616 3.5542 0.4119
-5.9139 -3.1045 4.7818 -3.5873 -2.5628 5.4469 7.1244 2.2636 -1.0601 4.5422 2.5709 1.7045 3.0531 4.0913 2.1620 2.5688 1.9857 2.4236 -1.2754 -2.4514 -1.3696 2.9997 3.7523 -0.5889 -0.5045 1.2779 -0.5325 6.0459 2.1382 -2.0236 5.0070 1.1724 -1.5001 3.9357 0.9626 -2.5510 -0.6463 -1.2379 -4.3841 2.7022 0.2859 -1.9792 -1.9967 -0.8345 -3.8161 0.3628 -0.3590 -3.6573 2.0465 1.6892 -0.1417 -3.0972 -1.1656 -0.6773 -3.0629 -2.9736 0.8877 -4.2353 -0.9316 1.4369 -3.4214 -3.5010 2.1891 -4.5871 -1.4268 2.6379 -4.4555 -3.2431 4.4156 1.6913 1.3131 -1.5105 -1.6989 -0.3203 -2.4162 -0.2732 -0.0111 -2.3995 -1.9609 -1.4353 -1.4269 2.7451 2.8319 0.1845 0.2289 0.8410 -1.4290 -3.4039 -1.7185 0.5390 -4.1514 -2.7585 3.0417 3.2182 2.8592 1.6123
-6.2759 -4.7998 4.2684 -7.0066 -2.4292 4.3139 4.6135 -1.4281 -5.4412 2.2950 4.8839 1.6057 3.7942 6.0009 0.4884 1.7763 5.8026 -0.3051 -0.2463 -1.0544 1.3834 4.3181 3.6694 -0.7130 -0.2343 1.7540 -1.1294 4.0911 -0.9710 -4.1670 3.6789 0.4732 -4.3108 3.7966 1.1746 -2.9802 1.5519 -2.4990 -1.3882 2.5077 1.8972 -2.6661 0.0604 -2.3988 -1.6497 2.0243 -1.0601 -1.3305 2.0868 3.0372 -0.5523 -2.1470 -1.8829 0.3063 -2.6195 -2.2098 2.6408 -4.2727 -2.7621 0.9641 -3.5735 -2.5955 3.6642 -5.1552 -3.1286 1.9103 -5.8203 -3.3630 4.3518 2.1800 1.7428 -1.1940 -0.3634 -1.0723 -1.0363 0.8538 -0.2827 -0.9722 -0.8815 -1.3215 0.3682 3.1628 3.8788 -0.3561 0.8081 1.1004 -1.0874 -2.9580 -2.2654 1.3389 -4.8021 -3.0256 3.3203 2.7569 5.1348 0.3546
-5.6080 -4.8249 4.7391 -7.1403 -3.2490 3.5807 3.2311 -1.9623 -5.7066 2.1285 5.6083 -1.7485 1.2005 5.7938 0.2152 3.2888 6.3490 -0.0615 -0.5121 -0.2896 1.4740 3.2231 3.8004 1.0726 0.3178 1.7397 -1.2898 2.8804 -0.6373 -5.2312 3.5050 -0.4238 -3.8737 2.9624 0.8522 -3.2753 1.8983 -2.5190 -0.7232 3.6323 1.1401 -1.9501 0.4470 -2.3983 -1.1473 2.3925 -1.1088 -0.4728 2.5869 3.1344 -1.0555 -1.9446 -1.7669 0.3865 -3.0250 -1.4416 2.4887 -3.4484 -3.4565 1.2221 -3.9992 -1.8813 3.4667 -4.3841 -3.8474 2.1077 -5.7748 -3.4251 4.2005 2.7009 1.6979 -0.8849 0.0057 -0.9926 -0.7829 1.2314 -0.2474 -0.5579 -0.8032 -0.9865 0.5043 2.7693 4.0473 -0.0415 1.3010 1.0893 -0.9317 -2.7264 -2.2085 1.4227 -4.6837 -3.0235 3.2726 2.3468 5.4379 -0.4191
-2.7725 -5.7393 3.7281 -2.1461 -3.7639 5.0932 -3.5834 0.9396 0.4268 3.5298 4.5645 1.3785 4.6086 2.6851 1.6034 4.3493 3.5569 -0.3724 0.8294 -1.6757 -1.5565 1.9973 1.8581 1.5530 2.0695 2.3231 -3.0812 -2.7131 1.4104 1.4897 -1.3157 1.5761 0.9501 -1.1637 2.9112 0.2593 -0.0750 -0.9559 -4.7332 -0.5508 2.7547 -1.1150 -1.2321 -0.7936 -3.7623 0.8446 0.2118 -4.4328 1.7918 2.8742 -0.5162 -1.2790 -1.2712 -0.6357 -0.3268 -2.9362 0.8059 -2.6239 -2.2344 1.0923 -0.4713 -3.7878 1.9710 -2.7549 -3.0056 2.1850 -1.7859 -4.6093 3.8950 0.7706 2.0111 -1.0762 -0.6528 -0.0519 -2.5636 0.5450 0.5996 -3.0695 -0.2477 -1.0895 -1.5393 2.4319 2.5921 0.6701 1.1913 1.6837 -2.4988 -1.3563 -2.1793 0.3828 -1.6308 -3.8039 2.6549 3.7228 3.3452 0.8135
-6.6239 -3.5566 4.4404 -5.1232 -1.9611 5.6106 6.8770 1.2372 -3.4913 2.1718 4.6286 0.8239 2.2519 3.2836 2.5364 4.0884 4.1382 1.7311 -0.3596 -1.9120 0.2734 3.8519 1.5335 0.7094 -0.2232 1.4452 -0.5773 5.6189 1.4458 -4.1838 4.5484 1.7287 -3.1591 3.1919 1.4175 -3.7453 0.1120 -1.7767 -3.7801 2.0729 2.0177 -2.9247 -1.0193 -2.0828 -2.8185 1.0787 -0.9074 -2.9972 2.1778 2.4714 -0.5867 -2.6201 -1.5252 -0.1765 -2.6965 -2.9232 1.7586 -4.4850 -1.3497 1.3379 -3.3688 -3.3210 2.9785 -5.1291 -1.7430 2.4525 -5.1987 -3.0917 4.6130 1.9911 1.3968 -1.5428 -1.0233 -0.9274 -1.8320 0.3208 -0.3751 -1.8815 -1.2610 -1.5078 -0.4550 3.0413 2.4257 0.4805 0.5867 0.8582 -1.2983 -3.1964 -1.9323 0.9965 -4.5378 -2.7509 3.3247 2.8847 3.6158 1.3826
-5.5864 -4.2157 4.9482 -7.0326 -2.3129 4.2705 6.4291 -0.9273 -4.7817 3.1243 5.0231 0.0812 1.1883 4.6578 1.0180 3.0252 4.3282 2.1414 -0.6122 -0.3043 0.8782 2.4205 1.8230 1.2616 -0.0243 1.7807 -1.3573 5.9540 0.3900 -4.4031 4.5418 0.2589 -3.8895 4.0694 1.6016 -3.3910 0.8480 -2.5148 -2.5461 2.5933 1.5620 -3.0852 -0.4736 -2.4384 -1.8065 1.6543 -1.3313 -2.0484 2.5147 2.6330 -0.9078 -2.4962 -1.3724 0.0360 -3.0017 -1.1036 2.3478 -4.0662 -2.8743 1.0902 -3.7974 -1.4733 3.4986 -4.8372 -3.1932 2.1471 -5.6172 -2.7645 4.5370 2.3389 1.3712 -1.6022 -0.6514 -0.9721 -1.4485 0.6948 -0.4191 -1.4572 -1.2065 -0.8663 -0.0390 2.4783 2.7551 0.4650 0.8854 0.9581 -1.4655 -3.1067 -1.7857 1.1915 -4.7075 -2.4594 3.4008 2.4570 4.1860 0.9160
-5.6016 -3.8411 5.1410 -6.9964 -2.3614 3.7166 5.0882 -1.4691 -3.4097 3.3577 4.8501 0.5576 1.6256 4.5833 1.8543 2.9655 2.9126 1.4729 -0.7899 0.1392 0.7026 0.5402 4.2418 -0.6355 -0.2899 0.8429 -2.9892 4.6671 -0.8850 -4.6710 4.3099 0.5641 -4.4526 2.8868 0.6996 -3.9673 2.2879 -1.8349 -0.3450 2.7504 2.0016 -3.2139 0.9668 -2.4176 -0.8092 2.3450 -0.4547 -0.9655 2.0396 2.4986 -0.9396 -1.6530 -2.0058 0.3840 -2.6728 -1.2113 2.4075 -3.4227 -3.2752 1.3981 -3.6965 -1.3654 3.4220 -4.3662 -3.4272 2.3453 -5.6451 -2.5484 4.3637 1.5962 2.0860 -2.2432 0.0644 -1.2289 -1.0969 0.9754 -0.1147 -1.3059 -0.8162 -0.9335 0.1052 1.5381 3.6104 -0.3012 0.6647 0.8881 -2.2100 -2.5568 -2.1064 1.4082 -4.5304 -2.4213 3.3871 2.3680 3.9836 0.8894
-0.8721 -5.2015 3.7905 -1.9134 -6.6737 2.0949 0.0979 1.1336 4.6905 5.7028 1.2732 -0.2234 4.9755 2.9132 -1.4562 4.6842 2.9567 0.7070 -0.4540 -0.8915 -1.9398 3.2658 0.2121 -0.6295 1.1543 3.0352 -2.8535 -0.6286 2.1215 3.9133 0.2467 2.5906 2.7758 -0.0590 1.7862 1.5339 -2.4896 1.2258 -4.0369 0.1087 2.6411 0.2999 -3.0007 1.2067 -2.6074 -1.1388 1.9057 -3.9421 2.3040 2.3195 -0.6067 -2.4155 -0.9061 -0.6818 -1.1725 -2.7975 0.0822 -3.3317 -2.3018 1.0543 -1.0596 -3.9328 0.9685 -3.2340 -3.3650 1.8748 -2.0077 -5.3431 2.8039 0.9222 1.8980 -0.7389 -1.7513 1.1417 -1.7337 -0.7017 1.7060 -2.5745 -1.4355 -0.3210 -1.4706 3.3568 1.4329 -0.5467 0.4739 2.2953 -2.1389 -2.2508 -1.9941 0.1306 -2.0478 -4.2093 1.8404 4.6714 2.1426 -0.3801
-1.7962 -3.5102 5.1506 -1.3680 -5.7052 4.0901 -2.7309 0.9088 1.5726 4.9856 2.3479 0.2944 4.0198 4.3033 0.3111 4.3735 3.2491 2.1812 0.8160 -1.5025 -1.3407 2.2342 1.6481 1.6514 2.2681 2.0819 -2.9046 -3.4027 1.7606 0.6072 -2.4523 2.8551 0.1824 -1.6260 2.3807 -0.9851 -0.4036 -0.6845 -4.6852 -0.2678 3.0358 -1.0053 -1.4670 -0.5014 -3.6178 0.6368 0.3689 -4.3622 2.0210 2.7150 -0.3939 -1.4731 -1.7303 -0.9699 -0.4790 -2.7171 0.9670 -2.8856 -2.7082 0.7185 -0.6371 -3.4029 2.2303 -3.0351 -3.3567 1.8889 -2.1250 -4.4022 3.9764 0.8610 2.0224 -0.9372 -0.7224 0.0323 -2.3992 0.4783 0.6465 -2.9492 -0.3425 -1.1340 -1.5104 2.6663 2.3913 0.7765 1.2729 1.6090 -2.3490 -1.5552 -2.3587 0.2431 -1.8668 -3.7155 2.6815 4.0025 3.0726 0.8865
-4.5651 -2.8107 5.1852 -3.9494 -5.1560 4.6833 -2.7221 -0.2981 -3.9920 1.8188 6.1079 -0.0910 2.9060 5.4366 1.6739 3.7294 5.0786 -0.3083 0.9949 -1.1719 1.0932 1.1704 3.3652 1.2933 3.7347 1.2141 -1.0541 -1.9374 0.7368 -4.6437 -1.3852 1.6929 -3.6103 -0.2018 1.0569 -2.9338 2.4027 -2.6991 -2.0363 0.9167 2.0247 -2.6594 0.9492 -2.2754 -2.1337 3.1695 -1.4313 -1.7198 1.9907 3.1624 -0.8658 -0.9865 -1.7888 0.0193 -1.2255 -2.5898 2.2669 -3.1039 -2.6762 0.7473 -2.0857 -3.0936 3.3176 -3.9046 -3.1504 1.7206 -4.3550 -3.8281 4.0882 1.4160 1.8777 -1.2330 0.8350 -1.0011 -1.3100 2.1898 -0.4721 -1.2570 0.3260 -1.3358 0.0774 1.8369 3.7831 0.3520 2.5573 0.8630 -1.1712 -1.7108 -2.3618 1.0321 -3.3832 -3.3525 3.0655 2.5723 5.0927 0.4035
-3.3016 -2.2277 5.4673 -3.2816 -4.6472 4.9462 -3.2822 0.7246 -3.9553 2.1767 5.3480 1.9471 3.7090 3.8031 1.9014 3.3071 5.0017 0.1201 1.3484 -1.9855 0.0479 0.5524 3.3465 1.1888 3.5907 0.9635 -1.8017 -3.1321 1.6177 -2.8208 -1.7573 2.2349 -2.8784 -0.9120 1.6890 -1.7551 1.6438 -2.0584 -3.9751 0.5091 2.1677 -1.9203 0.4235 -2.1684 -3.0836 2.6634 -1.2714 -3.1810 2.1962 2.4987 -0.2108 -0.9273 -2.0906 -0.4665 -0.7846 -2.6922 1.8421 -2.9505 -2.4107 0.8024 -1.4503 -2.9908 3.0907 -3.5730 -2.7058 1.9595 -3.5648 -3.2666 4.4016 1.4119 1.4919 -0.9094 0.5474 -1.0654 -2.0378 1.9086 -0.5604 -2.1742 0.3985 -1.7412 -0.6903 1.6914 3.3679 0.7328 2.4133 0.6245 -1.6602 -1.4969 -2.3807 0.7439 -2.7952 -2.9907 3.1581 2.7179 4.3742 1.1703
-5.0173 -2.1157 4.9776 -4.2954 -4.4825 5.0178 0.1171 0.1282 -5.4728 3.7833 4.7440 1.1369 2.9100 5.4755 -0.7224 1.9863 5.9742 1.1837 0.9363 -1.5043 1.0369 0.9358 3.4446 1.2957 3.6901 0.9740 -0.9214 -1.0297 0.1503 -4.5821 -1.0877 1.4990 -3.9069 -0.5809 1.4000 -2.4895 2.2116 -2.8317 -2.1018 0.8471 1.8852 -2.4298 0.7899 -2.3188 -2.2502 3.0296 -1.6093 -1.7361 2.0502 2.9804 -0.6815 -1.0745 -2.0327 -0.0270 -1.4537 -2.4483 2.3025 -3.2735 -2.6678 0.7258 -2.3745 -2.7694 3.3721 -4.1291 -2.9818 1.7169 -4.6961 -3.3259 4.1322 1.3995 1.7282 -1.0291 0.7028 -1.1027 -1.3363 2.0791 -0.6282 -1.2560 0.2286 -1.5540 0.0348 1.7591 3.7330 0.4330 2.5003 0.6757 -1.0527 -1.8804 -2.3716 1.0282 -3.6686 -3.0223 3.0984 2.6049 4.9747 0.5032
-6.1258 -4.4723 4.0861 -5.8033 -2.2004 5.0457 3.1432 2.0323 -5.6556 3.2943 5.1980 -0.1984 2.9215 4.9992 1.9437 4.2682 3.6120 0.9427 0.3608 -2.3683 0.6580 0.7984 3.6824 0.8936 3.3664 0.0541 -1.1423 2.6938 3.1845 -4.8943 2.4670 2.7972 -3.4513 1.2908 1.8557 -3.3119 0.8560 -2.8156 -2.9028 0.6466 1.9961 -1.9546 -0.4442 -2.2053 -2.4100 1.9749 -2.0841 -2.1997 2.2990 2.2817 -0.1904 -1.8081 -1.6180 0.2223 -2.0183 -2.5999 2.4055 -3.9853 -2.2083 1.0627 -2.8794 -3.0724 3.4745 -4.7891 -2.6125 2.0632 -5.1199 -3.4109 4.4564 1.3632 1.3503 -0.7840 -0.0909 -1.1414 -1.3770 1.3555 -0.9985 -1.4832 -0.4506 -1.7647 -0.0379 1.9335 3.4037 0.5184 2.1331 0.0872 -1.1310 -2.5374 -2.2110 1.2242 -4.2176 -3.0458 3.3301 3.1037 4.2952 0.7972
-5.4046 -5.9555 0.9918 -7.2025 -4.2511 0.9374 4.5583 -2.5758 -1.1886 0.7603 3.6659 -4.1122 1.3474 4.6141 -2.2366 2.6483 4.7443 -3.9768 -1.4895 0.0948 -0.0763 3.4739 2.2023 -3.5243 1.6888 -0.8325 0.0836 5.5609 -1.7122 -0.5916 5.3158 -0.2930 -1.0458 4.7995 0.5236 0.1161 0.5365 2.9310 2.3596 3.8590 1.6187 -0.3354 -0.5264 1.8667 2.5392 1.2167 2.5960 1.0478 1.9257 2.0422 -1.8069 -1.9296 -0.7146 2.0702 -3.3338 -2.0481 0.6531 -3.4988 -2.2333 3.0599 -4.3643 -3.0603 0.5342 -4.4557 -3.1729 2.9521 -5.9304 -4.6885 1.6239 2.6137 1.0695 -0.9973 -0.0178 0.6630 1.7616 0.8606 1.2224 0.7463 -1.2152 -0.0065 1.1152 2.5117 2.6424 -2.9012 1.6840 0.3979 -0.0055 -2.9066 -1.6496 1.8657 -4.9035 -3.6119 1.6387 1.8179 3.9108 -3.2981
-4.0164 -3.7741 4.8148 -3.4785 -1.3878 5.2558 -2.6108 -0.2675 -5.0076 1.4068 5.2538 0.5529 1.5561 4.6753 2.6458 3.2737 4.4328 1.3292 1.7266 -1.9030 0.0647 1.2362 2.0932 1.9367 3.0102 1.6597 -2.1022 -2.7505 0.1926 -3.6373 -1.9978 1.4917 -3.4680 -0.5884 1.2353 -2.9881 2.1768 -2.0089 -3.8941 -0.4028 1.7565 -1.5845 1.1237 -2.4736 -2.9090 2.8901 -0.8719 -3.1908 1.3995 2.6914 -0.2969 -0.5826 -1.9685 -0.2949 -0.3299 -2.4369 2.0403 -2.5333 -2.1646 1.0774 -0.9495 -2.6490 3.3321 -3.1114 -2.3685 2.2739 -2.9396 -2.7168 4.7841 0.9203 1.4548 -0.9017 0.8028 -1.2482 -2.0630 1.9654 -0.3826 -2.1899 0.7356 -1.7238 -0.6356 1.4713 2.9193 1.0597 2.0476 0.9480 -1.8033 -1.0853 -2.1729 0.9581 -2.2886 -2.6011 3.4536 1.9226 4.3153 1.3877
-4.9713 -1.6031 4.7169 -3.9772 -3.7906 5.3119 -1.1260 -0.9135 -5.6037 1.7826 5.4742 1.9000 3.3973 4.8969 0.5565 1.5166 5.6508 -0.2540 1.0870 -1.0662 0.9720 1.0324 2.9079 1.6520 3.4054 1.3787 -1.8757 -1.1231 0.4852 -5.2158 -1.0919 0.5582 -3.7105 0.1886 1.2132 -3.2518 2.8239 -2.8171 -1.7906 0.0013 1.7022 -1.8372 1.3361 -2.6389 -2.0322 3.3745 -1.4056 -1.7720 1.6612 2.9130 -0.5813 -0.7298 -2.1496 -0.0146 -1.2701 -1.9420 2.3096 -2.8377 -2.9893 0.7956 -2.2181 -2.1327 3.3854 -3.7198 -3.1742 1.7960 -4.4590 -2.9181 4.1766 1.1985 1.5861 -0.9178 0.9908 -1.2816 -1.4344 2.2596 -0.5647 -1.3888 0.4831 -1.4742 -0.0165 1.5159 3.4652 0.6720 2.3906 0.8144 -1.4634 -1.5651 -2.3320 1.0557 -3.4064 -2.7179 3.1434 2.0498 4.8653 0.7166
-2.2856 -5.2410 4.7376 -2.7861 -6.8392 2.9134 -1.3261 3.3625 2.5954 5.4969 2.7723 1.1963 5.4042 2.5751 -0.9710 4.6021 4.3549 -0.0003 0.3152 -1.6848 -1.0116 3.1172 1.5311 1.1233 2.3571 1.4119 -3.0295 -2.2708 3.7172 1.5504 -1.5203 4.1209 0.3029 -1.0480 2.8998 -0.4437 -1.2458 -0.4467 -4.1480 0.2053 3.2085 -1.2251 -1.9691 -0.1018 -2.8586 0.1902 -0.0102 -3.9635 2.5125 2.7301 -0.7650 -1.8135 -1.2315 -0.1644 -1.1334 -3.2638 0.9086 -3.3806 -2.4318 1.2190 -1.4225 -4.3235 1.8523 -3.6485 -3.4076 2.1076 -3.0171 -5.4380 3.4303 1.2250 2.1073 -1.0148 -0.9025 0.2370 -1.8251 0.2956 0.4927 -2.6158 -0.7018 -0.9990 -0.9665 3.3759 2.3326 0.2314 1.3672 1.3098 -2.3004 -2.0691 -2.3496 0.5894 -2.6355 -4.4022 2.4319 4.7119 3.0067 0.1134
-5.9070 -4.6425 4.4930 -5.6001 -2.2847 5.2132 0.3533 3.7339 -5.6471 1.6906 4.7459 0.6382 3.0431 4.1295 2.2330 3.7448 5.4659 0.6601 0.3582 -2.6662 0.6698 4.5905 2.9896 -0.1873 0.0300 1.1898 -0.8294 1.1753 4.0110 -4.4832 2.2451 2.9515 -4.3756 1.7955 1.8753 -3.4199 1.5979 -2.7392 -2.5673 2.9091 1.5217 -2.4636 0.0895 -2.6134 -2.4596 2.1479 -1.4213 -2.0647 2.3492 2.3849 -0.2415 -1.8678 -2.2619 0.0776 -1.9884 -3.1809 2.2887 -3.9901 -2.3609 1.2107 -2.7816 -3.5019 3.4577 -4.7342 -2.6800 2.2871 -4.9147 -3.5221 4.6863 2.4386 1.1957 -1.0555 -0.1595 -1.5465 -1.4078 1.0886 -0.8203 -1.2784 -0.4912 -2.2082 -0.0880 3.4136 3.1893 0.0971 1.0614 0.5465 -1.0278 -2.5537 -2.5983 1.2155 -4.1048 -3.2588 3.4681 2.9711 4.3765 0.9005
-3.9700 -2.6117 5.7977 -4.8088 -4.7359 4.8441 -1.0589 4.6106 -4.3692 1.9350 3.7705 1.7283 3.8096 2.9021 2.4257 3.8079 4.8335 1.4161 0.4400 -2.5922 0.2333 4.4439 3.0717 -0.5938 0.0326 0.8957 -0.6136 0.0604 4.6919 -3.4480 1.1381 3.7387 -3.9033 1.0115 2.4412 -3.1495 1.2504 -2.2591 -3.6733 2.3615 1.9749 -2.6607 0.0987 -2.7518 -2.8187 1.9448 -1.1908 -2.8488 2.3826 2.0773 -0.2111 -1.8255 -2.3015 -0.2675 -1.7604 -2.9939 2.0222 -3.8640 -2.3529 1.0181 -2.4572 -3.2485 3.2640 -4.5162 -2.5907 2.1719 -4.5869 -3.2653 4.5824 2.3095 1.1950 -1.3571 -0.2116 -1.6075 -1.8695 1.0138 -0.8306 -1.7967 -0.4621 -2.2115 -0.5074 3.4403 2.9036 0.0927 1.0061 0.4254 -1.2054 -2.4231 -2.5407 0.9418 -3.7858 -3.0457 3.3476 3.2436 3.5984 1.4079
-4.2178 -5.5957 4.0278 -3.6541 -3.5178 5.2567 -3.7295 2.9262 -1.5057 3.7580 4.0839 2.2370 4.7698 3.8485 0.3227 2.9970 5.1116 0.4752 1.0738 -1.8911 -0.1741 2.3658 1.9296 1.4402 3.2593 0.9168 -2.4172 -2.8771 4.0805 -1.2855 -1.6515 3.9470 -2.1550 -0.5035 3.4434 -1.3185 0.7200 -2.2327 -3.7189 0.3879 2.5506 -2.1485 -0.5158 -1.5761 -3.1261 1.8439 -1.2513 -3.4528 2.3387 2.7057 -0.7392 -1.2563 -1.8714 -0.3292 -0.8072 -3.2769 1.5686 -3.0750 -2.6281 1.0394 -1.3084 -3.9626 2.7455 -3.5434 -3.2711 2.1242 -3.1522 -4.5567 4.2823 1.3377 1.7873 -1.2494 -0.0003 -0.6967 -1.9908 1.3598 -0.3749 -2.4061 0.0334 -1.5434 -0.7248 2.6839 2.7577 0.5924 2.0872 0.7525 -2.0709 -1.6461 -2.5943 0.7665 -2.6241 -3.9464 3.0314 3.5462 3.9458 0.9026
-7.1625 -3.1201 4.2919 -7.3383 -4.0845 2.0115 7.0209 -1.4925 -4.5693 2.9599 5.3831 -1.5605 0.8159 5.6228 -1.2556 1.9996 4.5149 0.1951 -1.4188 0.1524 0.4083 0.8972 3.4461 -2.9170 0.6093 -0.5907 -1.9223 5.6311 -1.6254 -4.1789 5.1602 -0.2755 -3.7070 3.7877 -0.4174 -3.1106 2.3060 0.2127 2.3017 3.6634 0.5016 -1.9229 1.1395 -0.7490 2.3555 2.1736 0.9376 0.9833 2.2892 2.4241 -1.3694 -1.4257 -1.8688 1.5803 -3.6965 -1.0959 1.7273 -3.1020 -3.2828 2.5672 -5.0823 -1.3840 2.0453 -4.3860 -3.5480 2.8732 -6.8551 -2.9110 2.8298 2.2783 1.0944 -1.9111 0.6796 -0.9556 0.9175 1.3031 0.1233 0.1611 -0.8344 -0.7935 0.9277 1.6013 3.4834 -1.9132 1.3113 0.1457 -1.2230 -2.7396 -2.0185 1.9409 -5.4274 -2.5716 2.5778 1.8419 4.7428 -1.1347
-2.0374 -6.5558 3.4771 -4.3534 -6.5102 2.6103 0.2332 4.8013 3.4979 4.9394 3.1237 0.9144 6.0128 1.5523 -0.1480 5.1239 3.1997 -1.2578 -0.1751 -1.6192 -1.2172 3.5412 0.4360 0.1259 1.8468 1.3960 -3.2960 -0.4623 5.1044 2.2597 0.4290 4.7478 1.0940 0.2076 3.3050 0.7080 -2.1749 0.1088 -3.7534 0.4314 3.1170 -0.7729 -2.5544 0.5466 -2.3493 -0.7317 0.5406 -3.9134 2.6681 2.2808 -0.9709 -2.0894 -1.0933 0.0102 -1.7236 -3.4311 0.4285 -3.3526 -2.2080 1.7284 -2.0014 -4.6032 1.2356 -3.6039 -3.2917 2.4863 -3.2216 -5.6726 3.1560 1.2745 1.8799 -1.0017 -1.2536 0.5238 -1.5528 -0.2257 0.7242 -2.5688 -1.0915 -0.8555 -0.9270 3.6525 1.5729 -0.3211 1.0100 1.3231 -2.3926 -2.3504 -2.2648 0.6737 -2.8915 -4.5399 2.2450 4.9240 2.3613 -0.2080
-2.5658 -6.3209 3.6580 -4.5998 -6.4568 2.2458 2.6647 5.5697 1.2876 5.6105 1.4282 -1.2442 4.8412 3.4315 -0.8531 5.6488 2.2388 0.7784 -0.4572 -1.6096 -1.0896 3.3310 0.8114 0.8374 1.5850 1.4226 -3.3451 1.5299 4.9606 1.9585 1.5029 3.4939 1.6100 0.2446 3.1332 0.8524 -2.4281 0.1010 -3.6060 0.5096 3.0128 -0.6339 -2.7532 0.6109 -2.2132 -0.9916 0.5259 -3.8314 2.6370 1.9672 -1.0474 -2.2145 -0.8830 0.2629 -3.4120 -1.9195 2.0014 -2.1077 -3.3262 0.5321 -3.7988 -3.1073 2.7424 -2.4509 -4.4256 1.2256 -3.7418 -5.5547 3.1005 1.2096 1.7094 -0.9743 -1.4287 0.5792 -1.4584 -0.4234 0.6900 -2.5082 -1.2964 -0.7721 -0.7717 3.5500 1.5754 -0.0969 0.8251 1.2763 -2.3839 -2.5887 -2.0142 0.9400 -3.3349 -4.3180 2.3784 4.9034 2.1696 -0.3541
-6.8189 -2.9817 4.8341 -7.5223 -3.8118 2.6016 5.3580 -1.0065 -5.7321 3.3735 5.0079 -0.3350 1.4077 5.8698 -0.7196 1.6261 4.2686 0.7381 -1.3391 0.0828 0.5995 1.6350 4.0293 -2.7316 0.7517 -0.5860 -2.4012 5.9502 -0.4738 -4.5171 5.1229 0.6771 -3.9896 3.8865 0.1671 -3.2884 2.1738 -0.7021 1.9679 3.6168 0.9269 -2.0091 1.2988 -1.8642 1.5418 2.2238 0.2426 0.7880 1.8855 2.4122 -1.0875 -1.5922 -2.1790 1.1147 -3.6672 -1.1788 1.7945 -3.2149 -3.4941 2.3164 -4.9913 -1.3370 2.3654 -4.4455 -3.6452 2.8420 -6.7721 -2.7337 3.3468 2.1462 1.2743 -1.9247 0.5374 -1.4148 0.3060 1.2452 -0.2339 -0.1682 -0.8875 -1.0543 0.7007 1.8358 3.7021 -1.5663 1.3064 0.0749 -1.5190 -2.8028 -2.2112 1.7624 -5.3862 -2.5317 2.8431 2.0584 4.7041 -0.4737
-6.1577 -1.9776 4.0851 -5.3600 -4.3128 4.3301 1.3883 0.0242 -6.0882 2.6955 5.2745 0.7199 2.8039 5.2111 -1.4576 1.0646 6.0804 -0.4800 0.3971 -0.8916 1.7974 0.1458 3.5704 0.0501 3.7567 1.0815 0.3279 0.2889 0.7950 -5.5356 0.8408 1.7538 -4.5094 0.5195 1.2600 -3.1192 2.8911 -3.0871 0.3050 1.8035 0.9183 -2.3999 1.6850 -2.9128 -0.6013 3.5192 -1.7095 0.3608 2.1102 2.7307 -0.8501 -0.9626 -2.0708 0.3082 -3.1837 -2.8308 0.4434 -2.1180 -2.0806 2.4781 -4.3824 -3.1129 1.2135 -3.2302 -2.3275 3.1915 -5.6147 -3.1851 3.3584 1.7199 1.3378 -0.9471 1.2387 -1.4690 -0.3981 2.4510 -0.7866 0.0381 0.2018 -1.4333 0.7137 1.2859 3.7250 -0.3762 2.7436 0.5550 -0.1378 -2.0903 -2.3231 1.0436 -4.4131 -2.8707 2.5379 1.9617 5.0643 -0.4023
-6.2325 -4.5331 4.6938 -7.0837 -2.2687 4.1428 6.3905 3.4989 -4.5648 4.3064 3.8798 0.1849 2.8160 4.1589 1.7531 3.5655 2.1646 1.3091 -1.2154 -0.3175 0.6248 1.2737 4.0498 -0.5033 -0.7442 0.7501 -2.3004 5.1772 3.5324 -3.7686 4.3089 2.3900 -4.2264 2.8832 2.6149 -3.8000 2.0950 -2.2041 -0.1005 2.3398 1.3265 -3.2313 0.7767 -2.8470 -0.4902 2.1621 -0.9392 -0.9283 2.1581 1.9378 -0.8705 -2.0736 -2.4364 0.1679 -3.9087 -3.6053 1.0703 -3.0318 -1.7320 2.3198 -4.8893 -3.8050 2.1239 -3.9328 -1.9195 3.2993 -5.8494 -3.1131 4.3494 1.4343 1.6377 -2.0706 -0.1109 -1.7184 -1.0054 0.7804 -0.5775 -1.1739 -1.1645 -1.3961 0.0396 2.1002 3.1740 -0.2701 0.3956 0.5578 -1.8692 -3.0147 -2.6016 1.1519 -4.9047 -2.9985 3.2036 3.1923 3.3397 0.7393
-7.3459 -4.0707 0.8535 -7.8986 -2.4233 2.6181 6.3799 -0.0761 -4.4783 1.6377 4.5834 -0.7405 2.3129 5.3671 -2.6545 0.3248 4.4981 -2.4818 -1.3743 -0.2909 0.2338 2.8227 2.8198 -3.4604 1.4906 -1.3602 -1.0277 6.4545 -0.7428 -3.1917 5.9891 0.2202 -2.1283 4.6781 -0.2685 -1.5710 0.9573 1.4299 2.6315 3.8941 0.8722 -0.9698 0.6775 -0.0297 2.9378 1.7158 1.3971 1.3210 1.7991 2.0457 -1.5277 -1.4920 -1.8073 2.0042 -3.7544 -1.4893 1.2770 -3.2430 -3.1893 2.9175 -5.1389 -1.9127 1.3045 -4.5307 -3.5808 2.9508 -6.9053 -3.4684 2.1668 2.4592 0.7715 -1.4299 0.5926 -0.7172 1.5805 1.2505 0.1961 0.6561 -0.8658 -0.8763 1.1855 2.1609 3.0101 -2.4450 1.6863 -0.2244 -0.5861 -2.8292 -2.1080 2.0342 -5.5179 -2.9322 2.0985 1.6125 4.3569 -2.0787
-4.3036 -3.2281 5.3645 -4.0698 -5.5454 4.5239 -2.3685 4.5395 -4.1045 3.5192 4.4883 2.0406 4.7809 3.5618 0.5254 3.2783 5.0343 -0.0535 0.7617 -1.8413 0.5331 1.8975 2.4022 1.5564 3.5577 0.3731 -1.6713 -1.6344 4.8833 -2.9002 -0.2967 4.1870 -2.9385 -0.2920 3.0399 -1.9576 1.1952 -2.9371 -2.8914 0.7421 2.0208 -2.3768 -0.1034 -2.1649 -2.7328 2.2785 -1.9178 -2.6039 2.4023 2.5026 -0.7037 -1.4650 -1.8916 -0.1669 -1.4485 -3.0775 1.9223 -3.5478 -2.5330 0.8558 -2.1903 -3.6330 3.0372 -4.2394 -3.0592 1.8843 -4.3889 -4.1178 4.1466 1.4764 1.4851 -1.1646 0.1971 -1.0849 -1.6979 1.6348 -0.8718 -1.8365 -0.1043 -1.6508 -0.3161 2.5124 2.8880 0.6129 2.3302 0.2962 -1.5767 -2.0918 -2.5192 0.8793 -3.5373 -3.6173 3.0319 3.5173 3.9884 0.7786
-4.9815 -3.8119 4.6709 -3.7273 -1.8403 5.5178 0.9503 5.7964 -4.0420 4.3697 2.6825 1.6873 2.9011 4.1410 0.9947 2.7541 3.3146 3.0035 0.4386 -2.7398 -0.5843 1.7468 1.0205 1.9902 3.0197 0.3543 -2.0796 1.0846 4.3548 -4.1529 -0.0008 3.7003 -3.3324 0.5561 3.2922 -1.9914 0.6715 -2.6187 -3.9525 0.0428 1.9282 -1.5905 -0.6539 -2.1021 -3.4201 1.6938 -1.5791 -3.5427 2.0380 1.8697 -0.1458 -1.6946 -1.7930 -0.4498 -1.5293 -3.1224 1.5354 -3.3408 -1.5394 1.2700 -2.0488 -3.4526 2.8468 -3.8430 -1.8671 2.4732 -3.6515 -3.0996 4.6868 1.0613 1.0624 -0.8657 -0.3064 -1.1711 -2.2601 1.0969 -0.8367 -2.4533 -0.4370 -1.9848 -0.9948 2.1970 1.8655 1.2213 1.8175 0.1855 -1.8580 -2.1216 -2.1698 0.7918 -3.1531 -2.8394 3.3111 3.0500 2.9998 1.7150
-4.5670 -5.1117 4.2803 -3.7569 -3.0524 5.3917 -2.3547 5.0511 -3.7007 3.7696 4.3359 -0.1248 2.5228 4.9070 1.5672 4.1602 3.4957 1.8457 1.0232 -1.6909 0.2307 1.6337 2.1362 1.6339 3.3639 0.7475 -2.1963 -2.3986 4.2879 -2.4671 -0.9866 4.0947 -1.9727 -0.8232 2.6972 -1.4255 1.1917 -2.3846 -3.9128 0.3156 2.0105 -2.1426 0.0543 -2.3979 -2.9126 2.2958 -1.5920 -3.2484 2.1299 2.4249 -0.6108 -1.2216 -1.9999 -0.3360 -3.0980 -2.6933 0.8953 -0.9178 -2.9807 1.8976 -3.6899 -3.2386 2.1038 -1.4624 -3.4918 3.0152 -3.4036 -4.1603 4.4286 1.2792 1.3850 -1.1549 0.2640 -1.1843 -2.0132 1.6485 -0.7872 -2.2358 0.1009 -1.6574 -0.5782 2.2274 2.7160 0.7292 2.2042 0.4417 -1.9098 -1.7636 -2.5441 0.7970 -2.9072 -3.6220 3.1315 3.1663 3.8576 0.9947
-5.9614 -4.2006 5.1142 -7.3501 -3.2845 3.2737 5.4808 3.4278 -3.5986 3.7958 2.4851 1.6081 4.6924 2.6404 -0.3714 4.1247 4.4431 0.7087 -0.6350 -0.5942 1.1252 1.5216 3.9796 0.0408 -1.0568 0.9630 -1.6041 4.3455 4.0268 -4.2768 3.3474 2.9416 -4.5905 2.0961 3.1348 -3.7707 2.2060 -2.2520 -0.8560 1.6212 1.7846 -3.2896 0.8123 -2.8390 -0.9717 2.0817 -0.8659 -1.4535 2.1753 1.9689 -0.9056 -1.6508 -2.6251 0.5989 -2.9620 -1.7443 2.4064 -3.5047 -3.8982 1.4487 -4.0946 -1.8837 3.3000 -4.5449 -4.0392 2.2901 -6.0887 -3.1059 4.0841 1.1166 1.8690 -1.8729 -0.1446 -1.6535 -0.9912 0.6973 -0.4908 -1.2331 -0.8187 -1.5401 0.3640 2.3679 3.1150 -0.1647 0.1561 0.7377 -1.5725 -2.6916 -2.6911 1.4874 -4.8740 -2.9793 3.2352 3.7392 3.1696 0.4374
-6.8123 -1.7263 4.5181 -5.8124 -3.8870 5.1841 6.2993 3.5017 -4.7566 3.2256 4.2135 1.6076 3.3753 2.0425 1.7001 4.4850 3.1512 0.1826 -1.0572 -0.3744 0.7362 1.2177 3.7851 -0.1140 -0.7827 0.8273 -2.2150 5.1281 3.5122 -3.8992 4.1980 2.4253 -4.3746 2.8079 2.6618 -3.8414 2.0710 -2.3325 -0.3715 2.2744 1.3709 -3.2678 0.7074 -2.9000 -0.7216 2.1418 -1.0278 -1.1354 2.2292 1.8401 -0.8655 -2.0474 -2.4224 0.2147 -3.0907 -1.6850 2.2418 -3.9401 -3.6321 1.0891 -4.1555 -1.8241 3.2114 -4.9392 -3.7568 1.9832 -6.2090 -3.0183 4.0142 1.4341 1.6544 -2.0487 -0.1658 -1.7021 -1.0769 0.7632 -0.5950 -1.2545 -1.1079 -1.4088 0.0762 2.1371 2.9733 -0.0896 0.3748 0.5875 -1.8611 -2.9871 -2.5382 1.2059 -5.0643 -2.8095 3.0840 3.3015 3.0937 0.8444
-7.5250 -2.9350 3.3251 -6.8648 -4.5722 1.5771 5.3366 -1.6912 -4.6287 2.2034 5.1135 -2.0242 0.2675 4.6068 -2.8864 0.6495 4.2228 -0.7782 -1.1393 0.0564 0.4607 1.7511 2.4209 -3.5342 1.4531 -1.2548 -0.9900 5.6730 -0.3205 -4.2896 4.4894 0.2865 -3.5826 4.9365 1.0115 -2.3352 2.2254 0.8538 2.9726 4.1164 0.6055 -1.1299 0.9643 0.0197 3.0635 2.3930 1.1651 1.5002 2.1911 2.1319 -1.2754 -1.3379 -1.5670 2.1284 -3.5690 -1.2275 1.3148 -3.1335 -2.9030 3.0029 -4.9572 -1.6414 1.3000 -4.4243 -3.2841 2.9974 -6.7760 -3.1350 2.0306 2.6335 0.7685 -1.3702 0.8185 -0.6426 1.7018 1.5530 0.2213 0.7885 -0.6570 -0.6450 1.3449 1.7324 2.8244 -2.3748 1.8330 -0.1848 -0.5078 -2.6786 -1.8443 2.1141 -5.3740 -2.6432 2.0961 1.2155 4.1832 -2.0115
-5.4204 -0.3813 4.3450 -4.5196 -2.3351 5.5729 2.2715 1.2353 -6.4544 0.7605 3.6449 2.3862 -0.3882 2.3024 1.1127 1.6785 1.8224 1.6321 1.1309 -1.0164 1.2466 1.4541 4.8159 0.1095 3.5824 1.1607 -1.4733 1.1717 0.3656 -6.0772 0.3719 1.0387 -4.9889 0.8330 0.5364 -3.6441 2.7315 -2.8567 -2.0951 0.3712 1.4720 -2.5554 1.3399 -2.8657 -1.4966 3.3865 -1.6056 -1.5519 1.6169 2.8278 -1.0074 -0.7737 -1.9929 0.3162 -1.4783 -1.3128 2.5040 -2.9879 -2.5369 1.0634 -2.5211 -1.2643 3.5085 -3.9542 -2.5028 1.9993 -4.8714 -1.7827 4.2116 1.1910 1.4649 -1.2783 1.0194 -1.4182 -1.1395 2.3013 -0.7274 -1.1717 0.4897 -1.4211 0.2818 1.3151 3.5932 0.0891 2.4739 0.6405 -1.3283 -1.7008 -1.9077 1.3176 -3.7196 -1.8312 3.2697 0.8445 2.8383 1.2960
-7.2116 -2.2185 4.1650 -7.3004 -3.7027 2.1721 6.3511 -0.3567 -5.0275 0.7543 5.2426 -1.2911 1.0533 4.0148 0.4846 2.7640 4.6056 -0.7406 -0.9402 0.0052 0.6034 0.4722 2.8825 -2.5231 1.0040 -1.3118 -1.7899 5.3511 0.5813 -5.5074 4.0652 0.3736 -4.7425 4.0734 1.1864 -3.4696 2.4466 -0.0186 2.4168 3.6269 0.3386 -2.3013 1.5694 -1.2581 2.4636 2.8017 0.1422 0.9536 2.1449 1.9673 -1.1974 -1.2358 -1.9958 1.7664 -3.4463 -1.1094 1.4831 -3.0852 -3.0332 2.9021 -4.8662 -1.2109 1.7519 -4.4046 -3.1334 3.1491 -6.8021 -2.3876 2.7229 2.2251 0.7102 -1.8831 0.9693 -1.4030 1.0665 1.6839 -0.4383 0.2412 -0.4969 -1.0181 1.1169 1.2945 2.9670 -1.6167 1.5879 -0.4419 -1.1393 -2.5790 -1.9777 2.0368 -5.3393 -2.2038 2.5271 1.4688 4.2023 -0.7937

>  <OB_ATOM_TYPES> (1elaA1)
C.3 C.3 N.3 F F F O.2 O.2 O.2 C.3 C.3 C.3 C.3 C.3 C.3 C.3 N.am N.am C.ar C.ar C.ar C.ar C.3 C.3 C.3 N.am C.2 C.2 C.2 C.ar C.ar C.3

>  <ENSEMBLE_RMSD> (1elaA1)
0.000 1.449 1.561 1.584 1.625 1.657 1.893 1.893 1.927 1.939 2.191 2.285 2.408 2.449 2.568 2.928 3.014 3.077 3.108 3.123 3.172 3.199 3.318 3.378 3.405 3.410 3.411 3.417 3.430 3.487 3.521 3.525 3.556 3.655 3.658 3.661 3.667 3.689 3.690 3.732 3.813 3.867 3.870 3.875 3.877 3.898 3.923 3.934 3.934 3.957

$$$$
