
 OpenBabel03071213D

 33 33  0  0  0  0  0  0  0  0999 V2000
   40.4360   26.1060   38.4180 C   0  0  0  0  0
   41.4610   24.4040   39.3330 C   0  0  0  0  0
   36.6970   15.1050   36.1960 C   0  0  0  0  0
   35.0870   15.2850   38.2240 C   0  0  0  0  0
   39.6060   14.6180   38.0590 N   0  0  0  0  0
   45.1590   22.3250   36.0450 F   0  0  0  0  0
   44.2650   22.4010   34.1750 F   0  0  0  0  0
   43.2850   23.1710   35.8590 F   0  0  0  0  0
   40.6280   20.0570   39.3690 O   0  0  0  0  0
   38.1910   21.7400   36.2420 O   0  0  0  0  0
   42.9080   19.9720   34.9160 O   0  0  0  0  0
   40.9830   15.0620   37.8910 C   0  0  0  0  0
   41.0750   16.5680   38.1170 C   0  0  0  0  0
   42.4980   17.0670   37.9460 C   0  0  0  0  0
   42.6420   18.4860   38.4520 C   0  0  0  0  0
   39.9830   23.8480   37.3740 C   0  0  0  0  0
   40.7660   21.5380   37.6270 N   0  0  0  0  0
   43.0130   20.5400   37.0850 N   0  0  0  0  0
   38.0760   20.8720   38.3950 N   0  0  0  0  0
   36.7500   19.3150   37.0760 C   0  0  0  0  0
   37.8600   18.6990   39.0980 C   0  0  0  0  0
   36.3940   17.9830   36.8960 C   0  0  0  0  0
   37.5040   17.3890   38.9220 C   0  0  0  0  0
   41.0410   24.8200   37.9770 C   0  0  0  0  0
   36.4700   15.5280   37.6480 C   0  0  0  0  0
   42.0630   19.5230   37.5010 C   0  0  0  0  0
   39.7140   22.4420   38.0170 C   0  0  0  0  0
   41.0600   20.3810   38.2600 C   0  0  0  0  0
   38.5900   21.6150   37.3970 C   0  0  0  0  0
   43.2350   20.8140   35.7780 C   0  0  0  0  0
   37.5070   19.6690   38.1880 C   0  0  0  0  0
   36.7790   17.0180   37.8240 C   0  0  0  0  0
   44.0100   22.1540   35.4490 C   0  0  0  0  0
  1 24  1  0  0  0
  2 24  1  0  0  0
  3 25  1  0  0  0
  4 25  1  0  0  0
  5 12  1  0  0  0
  6 33  1  0  0  0
  7 33  1  0  0  0
  8 33  1  0  0  0
  9 28  2  0  0  0
 10 29  2  0  0  0
 11 30  2  0  0  0
 12 13  1  0  0  0
 13 14  1  0  0  0
 14 15  1  0  0  0
 15 26  1  0  0  0
 16 24  1  0  0  0
 16 27  1  0  0  0
 17 27  1  0  0  0
 17 28  1  0  0  0
 18 26  1  0  0  0
 18 30  1  0  0  0
 19 29  1  0  0  0
 19 31  1  0  0  0
 20 22  1  0  0  0
 20 31  2  0  0  0
 21 23  2  0  0  0
 21 31  1  0  0  0
 22 32  2  0  0  0
 23 32  1  0  0  0
 25 32  1  0  0  0
 26 28  1  0  0  0
 27 29  1  0  0  0
 30 33  1  0  0  0
M  END
>  <MOLID> (1elbA1)
1elbA1

>  <SMILES_CANONICAL> (1elbA1)
NCCCC[C@@H](C(=O)N[C@H](C(=O)Nc1ccc(cc1)C(C)C)CC(C)C)NC(=O)C(F)(F)F	

>  <FINGERPRINT> (1elbA1)
0000000000000001010000000000001000000001000000000011100000000000000000000001000000000001001000000100010000000001000001100000000000100000000000000000000000000000000000000000000000100000110000000000000000000000000000000000000000100000000000000000000000001000000000000000000000000000000000001000000000001000000010101100000000001000001010000000000000000100010000000000000110110000000000000000011000000000100000000000101000000000010100001010000000000001100000000000001000000000010000000000000000000000000000000000000000000000000001000000000000000000000000100000000000000000000000000000100000000000001000000000000000000000000000000000001000000101010000000001000000000000000000000011100000000100000001100011000000100000000000000010000000000011000000100111000000000000000110100000000000000000000000000000000010000000000000000000000000000000000000000000000000000000000000001001000000000000000000001000000000001000000000001000000000000000000000000000011000000000000000110010000000000000010000000000000000000000000000000010011000000000

>  <MACCS166> (1elbA1)
000000000000000000000000000000000000000001001000010001000000000000000000010100100101000001110010001100010111011100101100000000001010111101011100011010101111011110111000

>  <OB_MW> (1elbA1)
472.266

>  <OB_logP> (1elbA1)
5.0106

>  <OB_PSA> (1elbA1)
113.32

>  <OB_MR> (1elbA1)
121.92

>  <OB_ATOMIC_CHARGES> (1elbA1)
7.00386e-05 7.00386e-05 0.0046849662 0.0046849662 -0.1313873305 -0.162004199 -0.162004199 -0.162004199 -0.2714758459 -0.2711281445 -0.2641877259 0.1093073196 0.0205711161 0.0038068377 0.0311479402 0.0311085043 -0.1963294762 -0.1907043375 -0.1777727262 0.016275117 0.016275117 -0.0029419865 -0.0029419865 0.0022071171 0.0223537966 0.1729847602 0.1731073939 0.2616081054 0.2654005181 0.3371093288 0.073397896 -0.022420035 0.4711313143

>  <MCT_HBD> (1elbA1)
4

>  <MCT_HBA> (1elbA1)
7

>  <ENSEMBLE_TOTAL> (1elbA1)
50

>  <ENSEMBLE_COORDS> (1elbA1)
0.2622 6.2116 0.9709 1.2872 4.5096 1.8859 -3.4768 -4.7894 -1.2511 -5.0868 -4.6094 0.7769 -0.5678 -5.2764 0.6119 4.9852 2.4306 -1.4021 4.0912 2.5066 -3.2721 3.1112 3.2766 -1.5881 0.4542 0.1626 1.9219 -1.9828 1.8456 -1.2051 2.7342 0.0776 -2.5311 0.8092 -4.8324 0.4439 0.9012 -3.3264 0.6699 2.3242 -2.8274 0.4989 2.4682 -1.4084 1.0049 -0.1908 3.9536 -0.0731 0.5922 1.6436 0.1799 2.8392 0.6456 -0.3621 -2.0978 0.9776 0.9479 -3.4238 -0.5794 -0.3711 -2.3138 -1.1954 1.6509 -3.7798 -1.9114 -0.5511 -2.6698 -2.5054 1.4749 0.8672 4.9256 0.5299 -3.7038 -4.3664 0.2009 1.8892 -0.3714 0.0539 -0.4598 2.5476 0.5699 0.8862 0.4866 0.8129 -1.5838 1.7206 -0.0501 3.0612 0.9196 -1.6691 -2.6668 -0.2254 0.7409 -3.3948 -2.8764 0.3769 3.8362 2.2596 -1.9981
-1.0410 4.8843 1.7881 -1.1840 3.9415 -0.4703 -6.3960 -4.5003 -0.4904 -7.9941 -2.6032 -0.4998 3.9894 -5.5963 1.7221 5.4101 2.6751 -3.5940 4.0050 3.6171 -2.2241 5.9396 2.9189 -1.4951 2.5668 1.1925 1.7696 -1.5949 0.8764 -0.8209 4.4934 0.3082 -2.7866 3.1211 -4.6510 1.0420 3.9090 -3.3979 0.7414 3.0110 -2.3273 0.1628 3.7453 -1.0034 0.1400 -0.0783 2.6804 1.3236 0.7257 0.5131 0.5292 3.6588 1.2387 -0.8340 -2.5512 0.3308 1.2357 -3.7607 -0.9981 -0.3509 -4.5306 -0.8246 1.9362 -4.8605 -1.8993 -0.6256 -5.5351 -1.6849 1.6916 -1.2229 3.6071 1.0026 -6.8171 -3.2285 0.2081 2.8647 0.1169 -0.3780 -0.3450 1.1920 1.2246 2.0689 0.6855 0.7700 -1.5497 0.7980 0.4036 4.3293 1.2657 -2.0362 -3.5916 -0.4828 0.8813 -5.6996 -2.2600 0.3641 4.9144 2.6154 -2.3310
-1.3466 4.4607 0.9281 0.4821 3.4819 -0.3832 -7.2599 -3.4666 -1.5453 -8.4688 -2.0763 0.1034 4.1478 -5.2861 1.0657 5.7658 3.2926 -1.7959 4.8029 2.9435 -3.7196 3.6392 3.7114 -2.0472 2.4990 1.3709 1.8615 -1.6099 0.4645 -0.7211 4.6349 0.4600 -2.6314 3.5915 -4.1838 1.8291 4.3214 -2.9237 1.4406 3.4546 -2.0893 0.5325 4.0498 -0.7083 0.4271 -0.4355 2.2753 1.5925 0.8324 0.4211 0.5447 3.7313 1.4046 -0.7126 -2.3661 -0.4581 1.2893 -4.2438 -0.5885 -0.1864 -4.1420 -2.0219 1.7588 -5.4863 -1.2271 -0.5614 -5.3075 -2.6065 1.4212 -0.7597 3.1680 0.4156 -7.2537 -2.9438 -0.1265 3.0568 0.2395 -0.2003 -0.3406 0.7894 1.3004 2.1283 0.7582 0.8663 -1.5005 0.2696 0.4868 4.3207 1.4362 -1.9580 -3.5663 -0.9947 0.9034 -5.9981 -2.2131 0.1999 4.6266 2.8402 -2.3781
-1.4287 2.6963 2.6620 0.1281 4.4673 1.9296 -6.8783 -4.2756 -0.7050 -8.1937 -2.1692 -0.7080 3.8337 -4.9003 3.1237 5.0467 2.7756 -3.8285 3.6249 3.7932 -2.5260 5.5425 3.1183 -1.7375 2.5527 1.4022 1.5380 -1.4141 0.3647 -1.2681 3.3278 0.7870 -3.1035 3.2476 -4.2333 1.9755 4.1135 -3.0460 1.6386 3.4886 -2.2529 0.5190 4.1262 -0.8850 0.4538 -0.2474 2.5496 0.4026 0.9660 0.4555 0.1294 4.0320 1.1172 -0.9213 -2.2732 -0.1275 0.8488 -3.7856 -1.1552 -0.6993 -4.3655 -1.0100 1.6442 -5.0218 -1.8706 -0.9360 -5.5062 -1.6914 1.4315 -0.8624 3.4268 1.4707 -7.0950 -2.9452 -0.0242 3.2496 0.0542 -0.3405 -0.2168 1.0633 0.7016 2.2475 0.7224 0.5642 -1.3543 0.4049 -0.0421 3.8970 1.4610 -2.2485 -3.4653 -0.7266 0.5364 -5.8440 -2.1518 0.0927 4.5277 2.7810 -2.5738
-1.3988 4.7317 0.2760 0.9859 4.1383 0.2244 -6.6027 -3.8346 3.1880 -6.5404 -4.9450 0.9768 0.1152 -4.1246 -0.4715 6.5366 2.8165 -0.2183 5.5110 4.3267 -1.4087 4.5989 3.5863 0.4232 1.3840 1.2156 -2.5327 -0.4882 -0.6503 1.3167 4.7465 2.0433 -2.6773 0.9808 -3.4126 0.4512 2.3844 -3.3669 -0.1052 2.5527 -2.1943 -1.0416 3.0819 -0.9928 -0.2969 -0.7054 2.3975 0.6075 0.9994 0.9210 -0.2667 3.9503 1.2468 -0.6511 -2.3799 -0.1278 0.0466 -3.0330 -2.0849 1.2795 -4.6658 -0.8425 0.0005 -4.0917 -2.9859 1.6962 -5.6508 -1.6696 0.3945 -0.4050 3.6744 -0.1349 -6.5251 -3.6165 1.6945 3.1087 0.2150 -1.2054 -0.4242 1.1817 -0.2508 1.7417 0.8288 -1.4224 -1.0645 0.0116 0.4592 4.6476 2.1231 -1.4564 -3.3064 -1.0369 0.4799 -5.3602 -2.7802 1.2904 5.3164 3.2071 -0.6653
-0.4740 4.7754 0.1739 1.0516 3.0874 -0.6872 -6.8996 -4.3768 -0.1396 -8.3232 -2.4238 -0.6877 7.2873 -2.8667 -0.9096 3.6691 2.8173 -2.8261 4.5957 2.7869 -0.8573 5.3329 1.4673 -2.4319 2.2095 1.1757 2.1597 -1.6894 0.6054 -0.7893 2.2786 0.6085 -2.1627 5.8421 -2.7397 -0.8898 5.4221 -2.4386 0.5256 3.9288 -2.6047 0.6579 3.3746 -1.4170 1.4033 -0.3451 2.6024 1.3098 0.4790 0.2934 0.8792 3.5742 0.3693 -0.2536 -2.8981 0.4559 1.2011 -4.0198 -1.0714 -0.2664 -5.0210 -0.4575 1.8491 -5.1510 -1.9393 -0.5199 -6.0615 -1.2808 1.6263 -0.2909 3.2910 -0.0350 -7.2940 -2.9764 0.2681 2.6538 -0.4825 0.4620 -0.6234 1.1119 1.3123 1.7870 0.4321 1.2819 -1.7746 0.7016 0.4316 3.2436 0.9254 -1.4723 -3.9464 -0.3606 0.8744 -6.1252 -2.0656 0.4013 4.2073 1.9946 -1.8890
-1.7731 3.9308 -1.3272 -0.2758 4.5074 0.5265 -7.6774 -1.7700 2.9070 -7.0029 -4.0866 2.3174 2.8567 -5.1646 -1.6036 6.3963 2.9483 0.3399 5.6240 4.2438 -1.2298 4.3682 3.7431 0.4755 1.5880 1.0435 -2.5092 -0.6172 -0.5517 1.4964 5.1605 1.8032 -2.2907 2.1023 -4.7158 -0.4458 2.7470 -3.4937 0.1717 2.7427 -2.3149 -0.7774 3.1320 -1.0484 -0.0488 -0.9341 2.1965 0.2188 0.9822 0.7632 -0.2879 3.9385 1.2347 -0.4045 -2.1988 -0.6679 -0.2092 -3.4753 -1.3192 1.7198 -4.3692 -1.6129 -0.5114 -4.7193 -1.8405 2.2533 -5.5323 -2.0706 -0.0188 -0.5845 3.4619 -0.5204 -7.0617 -2.6537 1.8488 3.2072 0.1321 -0.9980 -0.4496 0.9151 -0.4243 1.8420 0.6785 -1.3633 -1.0639 -0.1837 0.4139 4.7923 2.0320 -1.1409 -3.3063 -1.2009 0.3890 -5.7236 -2.1729 1.4188 5.2850 3.2336 -0.3857
0.1525 4.8207 1.6085 -2.1407 4.1050 1.0732 -8.4900 -2.1339 -0.2968 -7.4302 -3.7996 1.2082 7.4684 -3.2812 -0.4694 4.0340 2.2727 -3.3731 4.7529 2.6313 -1.3501 5.6457 1.0509 -2.5616 2.1471 1.1713 1.9888 -1.6709 0.7302 -1.2289 2.5901 0.1874 -2.4445 6.0216 -3.3913 -0.4381 5.5164 -2.6470 0.7721 4.0085 -2.5936 0.7457 3.5409 -1.2951 1.3574 -0.2187 2.6826 0.4412 0.5671 0.3655 0.4842 3.6709 0.3751 -0.3994 -2.7751 0.5170 0.8167 -3.8344 -1.2245 -0.4431 -4.9811 -0.2011 1.4262 -4.9845 -2.0864 -0.6378 -6.0397 -1.0144 1.2603 -0.7664 3.6316 1.4809 -7.2236 -2.8925 0.0190 2.7744 -0.4804 0.3411 -0.5224 1.2495 0.8283 1.8232 0.4480 1.0523 -1.6909 0.7807 -0.0026 3.4670 0.6668 -1.7318 -3.8353 -0.3004 0.5360 -6.0471 -1.9972 0.1841 4.4706 1.6522 -2.2472
-0.5918 3.3814 3.5568 1.5049 2.8448 2.3923 -7.2984 -3.9923 1.4706 -7.8082 -3.4006 -0.8871 5.1950 -3.3020 2.6831 3.8852 3.5623 -1.9223 5.9231 2.7764 -1.8591 4.8867 2.9771 -3.7656 0.4444 0.2719 -2.2422 -0.8943 -1.1338 0.4028 4.5326 0.3628 -3.1538 4.3552 -2.1179 2.6514 4.7543 -1.2547 1.4765 4.0245 -1.6618 0.2150 2.7216 -0.9109 0.1273 -0.5498 1.5949 1.8995 0.7574 1.0137 -0.0609 3.4094 1.0187 -1.2397 -2.7286 0.3158 0.2923 -3.6935 -1.8706 0.1615 -5.1040 0.0905 0.3378 -4.8853 -2.6917 0.2058 -6.2094 -0.6715 0.3966 0.0061 2.9537 2.2365 -7.3767 -2.8710 0.4599 2.5460 -0.1417 -1.1654 -0.5848 1.2629 0.4183 1.1345 0.3968 -1.2358 -1.3862 -0.0123 0.3576 4.2066 1.2282 -2.3451 -3.7937 -0.5317 0.2473 -6.0976 -2.1207 0.3502 4.7148 2.6336 -2.4622
-1.0437 4.3190 0.0179 0.7183 3.0239 1.1215 -7.3521 -1.6904 3.4853 -7.1477 -3.9256 2.4180 2.1507 -5.1460 -1.0275 4.6013 3.8444 0.9006 6.2196 3.9350 -0.5516 4.1694 4.2732 -1.1948 1.3626 0.6841 -3.0419 -0.5767 -1.1316 0.8309 5.7762 1.2871 -0.5802 2.1874 -4.0035 -0.1315 3.5052 -3.2783 -0.2860 3.3832 -2.1304 -1.2662 3.3645 -0.8011 -0.5414 -1.0496 1.8965 -0.1626 0.8852 0.4593 -0.7763 3.5113 1.6380 -0.8772 -2.4512 -0.7011 -0.4816 -3.4318 -1.5018 1.5554 -4.7425 -1.3426 -0.4780 -4.6182 -1.9614 2.2483 -5.8497 -1.7407 0.1683 -0.1515 3.1043 -0.1126 -7.0821 -2.4347 2.2008 3.1734 0.3672 -1.4999 -0.5403 0.6367 -0.8352 1.7159 0.5176 -1.8775 -1.1511 -0.5052 -0.0538 4.8059 2.0391 -0.6303 -3.4912 -1.2022 0.2442 -5.7894 -2.0440 1.5879 4.9387 3.5152 -0.3728
-1.5620 5.8023 -0.7263 -3.2754 4.2666 0.1078 -4.1075 -4.8855 3.1540 -6.3404 -3.9124 2.6765 2.9305 -1.9293 -5.2164 6.3570 0.0819 0.9182 6.7710 1.6861 -0.4972 5.2539 1.9607 1.0407 1.0134 0.0775 1.0415 -1.9207 0.4534 -1.2468 5.0830 0.0974 -1.8978 1.6801 -2.4941 -4.7401 1.8142 -2.7981 -3.2665 1.2793 -1.6476 -2.4441 2.1923 -1.3714 -1.2712 -1.1575 3.3809 -0.8435 0.4929 1.6146 -0.6244 3.5080 0.3890 -0.2255 -2.4598 0.9122 0.9743 -3.1497 -1.3719 0.6994 -3.7229 -0.1482 2.7070 -3.7984 -2.5406 1.2618 -4.3005 -1.2376 3.2418 -1.7843 4.4845 -0.0167 -4.9547 -3.6362 3.2063 2.3113 0.1175 -0.9966 -0.7185 2.1683 -0.0402 1.2093 0.5702 -0.0658 -1.7569 1.0798 -0.2044 4.7640 0.4851 -0.7769 -3.0991 -0.2208 1.3969 -4.3251 -2.4891 2.5009 5.7732 1.0548 0.1734
-0.8698 4.1826 0.1707 0.8594 2.8503 1.2863 -7.7404 -1.3278 2.8285 -7.7932 -3.4321 1.5099 3.5445 -5.5114 0.7539 5.6821 4.1974 -1.1929 3.5806 4.4181 -0.6794 4.9496 3.4433 0.7107 1.7419 0.4151 -2.6750 -0.7820 -1.3301 0.8368 4.6944 2.0253 -2.4240 3.7950 -4.2056 1.3380 4.3788 -3.2889 0.2875 3.3072 -2.4424 -0.3652 3.3506 -1.0293 0.1804 -0.9087 1.7641 -0.0283 0.9733 0.2141 -0.4879 3.7384 1.3234 -0.4345 -2.4437 -0.7104 -0.6717 -3.7003 -1.5636 1.1830 -4.8031 -0.9623 -0.8912 -4.9934 -1.8961 1.7424 -6.0058 -1.2491 -0.3689 0.0092 2.9568 0.0393 -7.4861 -1.9567 1.4816 3.3247 0.0175 -0.9212 -0.4166 0.5053 -0.7148 1.9341 0.2251 -1.4766 -1.1967 -0.6258 -0.0788 4.3561 2.2426 -1.2622 -3.6085 -1.1010 -0.0778 -6.1051 -1.7129 1.0041 4.6332 3.5643 -0.6026
-1.2556 3.3664 -1.7490 -0.0295 3.9847 0.2845 -7.5169 -1.3556 3.0093 -7.4837 -3.5613 1.8691 2.3004 -5.2565 -0.4580 4.8584 4.5926 -1.2603 3.3605 4.0575 0.2229 5.4842 3.8869 0.6985 2.1351 0.3207 -2.3526 -0.5148 -1.2422 1.2579 5.2360 2.0060 -1.8174 2.3728 -4.1039 -1.3387 2.2620 -2.8510 -0.5026 3.6195 -2.4273 0.0222 3.6147 -1.0175 0.5878 -0.6619 1.6804 -0.0375 1.2458 0.1657 -0.2091 3.9462 1.3686 -0.0018 -2.1309 -0.9089 -0.3867 -3.4242 -1.6281 1.4985 -4.4785 -1.2226 -0.6470 -4.7265 -1.9430 2.0470 -5.6897 -1.4950 -0.1364 -0.1939 2.9119 -0.7705 -7.2096 -2.0860 1.7258 3.6258 0.0431 -0.5024 -0.1417 0.3528 -0.5422 2.2642 0.1874 -1.1388 -0.9126 -0.6957 0.2335 4.6052 2.2866 -0.8000 -3.3060 -1.2637 0.2081 -5.8205 -1.8477 1.2669 4.5658 3.6947 -0.2812
0.6525 3.6620 0.3988 -1.4900 3.4190 1.5771 -7.9500 -1.1549 2.8480 -7.5351 -3.5490 2.3281 4.2731 -5.0870 -0.7480 4.9189 3.7827 0.3459 6.2425 3.6863 -1.3779 4.1166 4.0358 -1.6658 1.2846 0.1610 -2.9511 -0.9523 -0.5676 1.2587 5.7521 1.0573 -0.9405 4.1037 -4.3610 0.4986 4.3447 -2.8869 0.2666 3.1224 -2.2095 -0.3133 3.1904 -0.7203 -0.0564 -1.0284 2.1017 -0.4523 0.7607 0.4022 -0.6950 3.4828 1.4721 -1.1230 -2.5234 -0.7193 -0.4594 -3.7857 -1.1900 1.5197 -4.7815 -1.4680 -0.6729 -5.0525 -1.5565 2.1141 -5.9650 -1.7870 -0.1247 -0.4197 2.6787 0.8060 -7.4717 -2.1358 1.8069 3.0552 0.0981 -1.3319 -0.6479 0.6735 -0.7895 1.6091 0.2171 -1.7677 -1.3574 -0.2768 0.1377 4.8069 1.8394 -1.0088 -3.6556 -1.1338 0.1809 -6.1103 -1.8113 1.3207 5.0103 3.3277 -0.9298
-1.0156 2.7394 3.0581 0.0256 1.0314 4.4686 -7.3126 -3.6392 0.8675 -7.3749 -3.5113 -1.6132 1.8864 -1.9132 4.3381 3.5637 2.9198 -4.6189 3.9591 3.9178 -2.7269 5.5448 2.7995 -3.7288 1.9858 2.4012 -0.0848 -0.4092 -1.6625 -0.1993 3.3049 0.5914 -3.3409 2.6529 -2.1683 3.1310 3.2792 -0.8743 2.6647 4.0359 -1.0838 1.3685 4.3827 0.2485 0.7254 -0.4701 0.4745 2.1703 1.3228 0.2620 0.4918 4.1484 1.4879 -1.3837 -2.1256 -0.0919 -0.2757 -3.3142 -2.1758 -0.2164 -4.5026 -0.0834 -0.4957 -4.5870 -2.8682 -0.2437 -5.6848 -0.7210 -0.5045 -0.0215 1.6001 3.0679 -7.0928 -2.7571 -0.3375 3.5001 0.5487 -0.4764 -0.0747 0.5622 0.7108 2.2072 1.1957 -0.0135 -0.8541 -0.5423 0.0317 3.8235 1.5224 -2.7274 -3.2718 -0.8340 -0.3188 -5.7315 -2.1658 -0.3541 4.2202 2.7894 -3.4339
-1.3834 4.1319 0.5760 0.9404 3.3746 0.4010 -7.3729 -1.6023 3.6573 -7.7330 -3.4561 2.0469 3.6807 -5.4186 -0.6270 6.1717 3.2736 0.5058 5.0214 4.1934 -1.0950 4.0259 3.5343 0.7287 1.1970 0.7860 -2.9840 -0.8154 -1.4104 0.5745 5.7519 1.1161 -1.0306 3.9763 -4.1814 0.0737 4.3653 -3.1165 -0.9264 3.1802 -2.2553 -1.3070 3.2501 -0.9187 -0.5996 -0.8972 1.7663 0.2857 0.7671 0.2951 -0.7534 3.4727 1.5082 -0.9537 -2.6717 -0.5288 -0.5195 -3.6574 -1.6478 1.3586 -5.0440 -0.6880 -0.3845 -4.8607 -2.0410 2.0610 -6.1615 -1.0312 0.2745 -0.4613 3.1518 -0.1206 -7.3631 -2.0035 2.2038 3.0404 0.2533 -1.5458 -0.6311 0.6514 -0.7065 1.5751 0.4712 -1.8581 -1.3428 -0.5605 -0.1370 4.7967 1.8460 -0.7766 -3.7441 -0.9846 0.1901 -6.0646 -1.7135 1.5532 4.9917 3.2052 -0.1654
-1.2410 4.1341 1.3914 0.7713 3.2797 0.2688 -7.5917 -2.6572 -2.2081 -8.5940 -0.7316 -1.0082 7.4689 -4.0309 1.8015 3.4746 1.5268 -4.0833 2.0814 2.3876 -2.6497 4.2068 2.8733 -2.5391 2.3519 1.0123 2.4437 -1.3254 0.4050 -0.6734 3.9886 -0.3787 -2.2662 6.2208 -3.4280 2.2310 5.8656 -2.3122 1.2790 4.5852 -1.6506 1.7282 4.4899 -0.2597 1.1470 -0.4064 1.8867 1.9637 0.8606 -0.0421 1.0087 3.2600 0.9859 -0.5446 -2.4976 -0.5851 1.0874 -4.1167 -0.3722 -0.6749 -4.6595 -1.5943 1.3399 -5.4272 -0.7043 -1.1988 -5.8766 -1.9020 0.8583 -0.5675 2.8966 0.8498 -7.6269 -1.8868 -0.9093 3.1638 -0.0673 0.4425 -0.3961 0.4271 1.5466 2.1074 0.3805 1.4208 -1.4433 0.1024 0.5105 3.5548 0.6973 -1.8625 -3.7345 -0.8062 0.5415 -6.2751 -1.4526 -0.4664 3.3279 1.8666 -2.7757
-1.7374 3.8962 0.4169 -0.3050 3.8754 -1.5712 -7.1418 -1.0084 3.6819 -7.7048 -2.8491 2.1107 5.2904 -5.3369 -2.3135 4.7457 4.1316 -0.9902 3.9885 3.4265 0.9235 6.0050 2.8907 0.2781 1.4636 0.1813 1.1353 -0.7609 -1.3481 0.3414 4.0718 1.8056 -2.0700 4.2530 -4.3351 -2.1464 4.2771 -3.8318 -0.7218 3.1288 -2.8734 -0.4977 3.5921 -1.6419 0.2541 -0.4969 1.8763 -0.1385 0.9455 0.1698 -1.1337 3.9730 0.7660 -0.0084 -2.5590 -0.3460 -0.7203 -3.5401 -1.3518 1.2232 -4.9246 -0.3048 -0.4692 -4.7377 -1.6459 1.9816 -6.0346 -0.5581 0.2414 -1.2464 3.0428 -0.7323 -7.2238 -1.4250 2.2337 3.1762 -0.3647 -0.4560 -0.4245 0.6425 -1.0176 1.7822 0.0143 -0.0396 -1.2310 -0.4644 -0.3691 4.2109 1.8353 -0.8491 -3.6284 -0.6921 0.0525 -5.9362 -1.2368 1.5227 4.7295 3.0601 -0.1525
-1.9494 3.6759 0.3420 0.4238 3.7163 0.9488 -8.4452 -2.5998 0.9795 -8.2410 -0.4829 2.2398 5.4069 -5.3057 -0.2635 5.8626 3.7202 -1.0066 3.7980 4.0483 -0.4035 5.1013 2.7803 0.8014 1.4525 0.5196 -2.6929 -0.9266 -1.6013 0.6175 4.6253 1.8523 -2.4949 5.6102 -4.2148 0.6732 4.3625 -3.3654 0.7201 4.5054 -2.1579 -0.1840 3.1715 -1.4591 -0.2873 -0.6603 1.5820 0.5831 0.8769 0.0274 -0.4974 3.7188 0.9391 -0.5641 -2.6308 -0.4540 -0.4717 -3.8271 -1.7119 1.1886 -5.0011 -0.3569 -0.4433 -5.1038 -2.0587 1.7829 -6.1834 -0.6788 0.1011 -0.6096 3.0114 0.0978 -7.5612 -1.7874 1.8942 3.1693 -0.2445 -1.1991 -0.4811 0.5231 -0.4878 1.7456 0.1329 -1.5642 -1.3335 -0.6483 -0.0401 4.3648 1.9189 -1.2956 -3.7770 -0.8788 0.1316 -6.2373 -1.5479 1.2680 4.7730 3.1067 -0.4736
-1.5215 2.6796 3.5568 0.6862 1.6168 3.6873 -7.7835 -3.4855 1.7493 -8.1119 -3.4942 -0.7116 4.6369 -2.9597 0.5892 4.8568 1.7599 -4.5506 4.5834 3.4496 -3.1982 6.5030 2.4280 -3.2937 1.2354 2.4503 -0.7620 -1.0271 -1.5532 -0.0477 5.4432 0.2652 -1.9901 4.5096 -2.5295 1.9709 4.7213 -1.0346 2.0445 3.4497 -0.3007 1.6829 3.7415 0.8675 0.7635 -0.9197 0.8384 2.0470 0.7353 0.4423 0.2674 3.6069 1.6025 -1.5647 -2.7631 -0.0095 -0.1961 -3.9226 -2.0687 0.2293 -5.1538 -0.0337 -0.2253 -5.1860 -2.7618 0.3886 -6.3257 -0.6693 -0.0579 -0.4010 2.0714 2.7410 -7.6945 -2.6703 0.4815 2.9755 0.7694 -0.5482 -0.6486 0.7626 0.5584 1.5747 1.3356 -0.3727 -1.4675 -0.4141 0.0756 4.7560 1.2541 -2.2363 -3.9026 -0.7509 -0.0479 -6.3449 -2.0831 0.2807 5.1589 2.2255 -3.3110
-2.0843 1.1503 3.9066 0.0599 2.3077 3.6960 -7.8145 -2.9992 1.2144 -8.1757 -2.4256 -1.1759 5.6771 -4.0010 2.2863 5.3196 3.2843 -2.6271 5.5647 1.8849 -4.2790 3.7244 3.0252 -4.0890 1.7519 2.3132 -0.4279 -0.9284 -1.4630 -0.3637 3.5352 0.2809 -3.1510 4.5708 -3.1912 1.8091 4.8490 -1.7402 2.1273 3.6516 -0.8965 1.7534 4.0684 0.3683 1.0280 -0.4565 0.4357 2.1993 1.0525 0.2303 0.2905 4.1474 1.3636 -1.2055 -2.4803 0.2510 -0.0970 -3.8508 -1.7158 -0.1056 -4.8498 0.4937 -0.0605 -5.1802 -2.2865 -0.0534 -6.0827 -0.0328 0.0088 -1.0457 1.6338 2.9152 -7.6551 -1.9391 0.1529 3.3698 0.5085 -0.3146 -0.2855 0.6215 0.7025 1.9942 1.1413 -0.1515 -1.2357 -0.3393 0.0217 4.0635 1.2326 -2.5776 -3.6904 -0.3791 -0.0931 -6.2523 -1.4757 0.0333 4.6680 2.3581 -3.3729
-1.0443 3.6379 1.0888 0.9899 2.5803 1.9311 -7.5204 -2.1790 3.3575 -8.2760 -3.1665 1.2056 5.7231 -1.0231 1.1245 5.2553 2.2221 0.7012 5.6515 3.6344 -0.9045 3.6803 3.5637 0.0080 1.1522 1.0135 -2.8108 -1.1346 -1.8466 0.0431 4.5040 1.9494 -2.6292 5.8412 -2.3850 0.6349 4.4907 -2.8694 0.1662 4.2067 -2.3630 -1.2308 2.8758 -1.6576 -1.2147 -0.6463 1.2284 0.7667 0.7045 -0.0834 -0.8112 3.6062 0.6934 -0.9030 -2.8221 -0.3530 -0.5421 -3.9533 -1.9409 0.8515 -5.1755 -0.1562 -0.2463 -5.1890 -2.3695 1.4707 -6.3197 -0.5393 0.3410 0.0049 2.5893 0.7820 -7.6313 -1.9755 1.8673 2.9102 -0.2440 -1.7658 -0.6044 0.4594 -0.5399 1.4978 0.2945 -1.8764 -1.5124 -0.7352 -0.3153 4.2854 1.7757 -1.4321 -3.9427 -0.8672 0.0399 -6.3204 -1.6738 1.2480 4.7126 2.7862 -0.4061
-1.5113 2.1106 4.4164 0.0433 3.3908 2.9987 -7.6566 -3.6846 -0.3703 -7.6306 -2.3373 -2.4508 5.9679 -2.6927 3.4901 4.2144 0.8892 -4.9458 3.6278 2.6160 -3.7570 5.6566 1.8260 -3.6083 1.3689 2.2863 -0.6086 -0.9699 -1.5757 0.8264 3.8088 -0.6603 -2.7743 4.9167 -2.2387 2.5990 5.0436 -0.7447 2.4302 3.7215 -0.1811 1.9765 3.9315 0.9094 0.9522 -0.2362 0.9580 2.6359 0.9194 0.3483 0.5843 3.7368 1.2332 -1.4358 -2.5963 0.1002 0.7480 -3.6840 -1.7731 -0.2878 -4.9585 0.1791 0.3577 -4.9185 -2.3972 -0.7251 -6.1049 -0.3999 -0.0423 -0.9331 2.2409 3.0291 -7.4197 -2.3127 -0.9564 3.1107 0.6248 -0.2868 -0.3523 0.7412 1.1408 1.7232 1.2120 -0.1344 -1.3099 -0.3978 0.8780 3.9291 0.5509 -2.6183 -3.6990 -0.5413 0.2553 -6.0918 -1.7482 -0.5910 4.3526 1.4685 -3.7255
-2.4364 3.7035 -0.9076 -0.5087 3.5031 -2.4079 -7.4783 -0.3675 3.1885 -6.8910 -2.7240 3.6800 3.6140 -5.5107 -2.2366 5.7009 3.0839 1.7652 4.6393 4.1286 0.1798 3.5309 2.9929 1.6714 1.6824 0.1081 -2.9478 -0.4435 -0.7792 1.1470 5.8617 1.2204 -0.1635 2.9498 -4.3008 -2.6906 2.7969 -3.3453 -1.5273 3.9155 -2.3228 -1.5168 3.6092 -1.1905 -0.5536 -0.7616 1.9632 -0.5113 1.0606 0.3649 -0.7252 3.5666 1.2866 -0.4037 -2.2672 -0.6953 -0.3015 -3.2664 -1.2193 1.8054 -4.6192 -1.0340 -0.2020 -4.4720 -1.4542 2.5652 -5.7407 -1.2589 0.4991 -1.5096 2.7178 -1.5900 -6.9635 -1.6619 2.6119 3.3931 0.1326 -1.2728 -0.3619 0.5490 -0.8924 1.9613 0.2015 -1.7554 -0.9884 -0.3852 0.1206 4.7763 1.7554 0.0466 -3.3401 -0.9909 0.4818 -5.6629 -1.4534 1.9369 4.6527 2.9824 0.9066
-0.9038 0.9827 4.3243 1.2907 0.5685 3.3184 -7.8455 -3.7219 1.0912 -8.3683 -2.9672 -1.2158 4.6762 -2.0970 3.8759 5.6820 2.3238 -4.3644 3.8031 3.3028 -3.8669 5.5728 3.6397 -2.6344 1.2377 2.4462 -0.3898 -1.1681 -1.5191 -0.6460 5.2397 0.4981 -2.4635 5.3661 -1.1736 2.9921 4.9080 -1.3711 1.5636 3.6073 -0.6500 1.2843 3.8205 0.6470 0.5307 -0.7469 0.1195 2.0483 0.7261 0.2395 0.0796 3.4718 1.7362 -1.6308 -2.8218 0.0430 -0.1480 -4.0508 -2.0154 -0.2756 -5.2045 0.0943 0.0196 -5.3323 -2.6901 -0.2193 -6.3913 -0.5306 0.0938 -0.1096 1.0622 3.0374 -7.8157 -2.5607 0.1275 2.9392 0.7439 -0.7072 -0.6095 0.4932 0.5858 1.5619 1.2629 -0.3284 -1.5313 -0.4583 -0.1465 4.5497 1.5143 -2.4573 -3.9839 -0.6768 -0.1439 -6.4571 -1.9789 -0.0096 4.8879 2.6928 -3.3249
0.0303 2.8521 3.4746 -2.1964 1.7704 3.3498 -7.3902 -3.9263 -0.7122 -7.5797 -2.1085 -2.3875 3.8068 -1.6626 2.4155 4.6932 0.1293 -4.6973 2.6726 0.8130 -4.2603 4.3435 2.2131 -4.1660 1.2781 2.5127 -0.0121 -0.6787 -1.7021 0.5512 5.1408 -0.0444 -2.0408 4.9418 -0.8750 2.8635 5.3279 0.1047 1.7816 4.4633 1.3409 1.8695 4.1428 1.8622 0.4889 -0.1128 0.4064 2.9376 1.0897 0.3539 0.8265 3.2034 1.1753 -1.6419 -2.4224 -0.1972 0.9440 -3.5023 -1.8523 -0.4231 -4.8081 -0.2248 0.8021 -4.7423 -2.4242 -0.9177 -5.9572 -0.7534 0.3453 -0.7377 1.5712 3.6744 -7.2571 -2.4408 -0.9507 3.1333 0.9772 -0.2128 -0.2150 0.5096 1.4280 1.7386 1.3930 0.1885 -1.1000 -0.6083 0.9131 4.1813 0.6115 -2.4352 -3.5289 -0.8084 0.4258 -5.9289 -1.9079 -0.5403 3.9703 0.9395 -3.8823
-0.2554 3.1402 3.0092 -0.6819 1.1878 4.4240 -8.2954 -2.5419 0.8884 -8.2379 -2.6677 -1.5933 7.2947 -2.4956 3.6020 5.5654 1.8455 -3.4335 3.6766 2.0357 -4.4943 4.0035 3.1611 -2.6651 1.7609 2.1792 -0.1222 -1.1982 -1.5722 0.1285 3.1023 -0.1413 -3.0167 6.5660 -2.4711 2.3449 5.7179 -1.2202 2.2826 4.8208 -1.2352 1.0592 3.8083 -0.1077 1.1401 -1.1106 1.0372 2.0403 0.7881 0.2133 0.6203 3.8793 0.8952 -1.1047 -2.6640 0.1800 -0.3265 -4.1154 -1.7082 -0.0464 -4.9897 0.4272 -0.7921 -5.4624 -2.2367 -0.0625 -6.2432 -0.0525 -0.7886 -0.1818 1.6321 3.0656 -7.9125 -1.8289 -0.3839 3.0666 0.1347 -0.1661 -0.5714 0.7097 0.6590 1.8252 0.9727 0.1036 -1.4774 -0.3775 0.1201 3.6711 0.7997 -2.4673 -3.8869 -0.4250 -0.3838 -6.4879 -1.4272 -0.3889 4.2252 1.9575 -3.2520
-1.5524 -1.1506 4.2068 0.3490 0.3816 4.1242 -7.8187 -3.3340 -0.0980 -8.4226 -1.4597 -1.6097 5.0520 -1.6230 4.3629 4.9049 3.4667 -3.4181 4.4320 1.9861 -4.9389 2.8307 2.9144 -3.8034 1.8674 2.0504 0.6818 -1.0817 -1.1870 -1.0420 5.0191 0.3971 -2.8155 5.2157 -0.3735 3.6401 5.7059 -0.6533 2.2358 4.5497 -0.7374 1.2578 4.4277 0.5241 0.4261 -0.3741 -0.7932 2.0887 1.0286 -0.0657 0.2236 3.3905 1.4758 -1.5851 -2.5271 0.1921 0.1575 -3.9884 -1.4015 -0.8652 -4.8645 0.3134 0.6131 -5.3235 -1.9361 -1.0009 -6.1047 -0.1868 0.5009 -0.8559 -0.1090 3.3537 -7.7295 -1.8468 -0.3285 3.2394 0.4793 -0.5285 -0.2699 0.0982 0.8601 1.9888 0.9285 0.1980 -1.3044 -0.3850 -0.1396 4.2213 1.3202 -2.6727 -3.7629 -0.3374 -0.0721 -6.3321 -1.3652 -0.3168 4.0895 2.4175 -3.6960
-1.1926 2.1632 3.9147 0.2818 0.3839 4.7251 -8.0745 -2.8616 0.2875 -7.8452 -2.6535 -2.1737 7.0418 -0.6669 3.9538 3.3235 1.3185 -4.9235 3.6518 2.9079 -3.4751 5.2782 1.5478 -3.9935 1.3697 2.0735 -0.5545 -0.9042 -1.7007 0.1445 3.0456 -0.4402 -2.9288 5.7150 -0.1360 3.6948 5.1245 -0.8811 2.5211 3.8157 -0.2606 2.0918 4.0248 0.7766 1.0070 -0.6937 0.1827 2.5151 0.9911 0.1774 0.7227 3.7676 1.1248 -1.3873 -2.3776 0.0734 -0.1813 -3.8289 -1.8427 -0.2274 -4.6936 0.3604 -0.7268 -5.1652 -2.3769 -0.4111 -5.9368 -0.1292 -0.8777 -0.1297 1.1711 3.5026 -7.6076 -1.9781 -0.8452 3.1785 0.4888 -0.2191 -0.3883 0.4748 1.0610 1.7678 1.0304 -0.0433 -1.2240 -0.5246 0.2943 3.5294 0.6582 -2.6643 -3.5985 -0.5220 -0.3578 -6.1906 -1.5506 -0.6961 3.9445 1.6114 -3.7496
-2.2343 0.7670 4.1408 -0.1174 1.9666 3.8213 -8.3746 -2.8012 1.1776 -8.6205 -2.3076 -1.2428 7.6868 -0.3886 1.9796 5.7616 1.1506 -4.3317 3.7993 2.0679 -4.1197 5.5111 2.8814 -3.0361 1.2518 2.0581 -0.5997 -1.3524 -1.6648 -0.2062 5.4388 -0.1033 -2.0059 6.7242 -1.4575 2.1831 5.3332 -0.8675 2.2464 4.6676 -0.8657 0.8854 3.7327 0.3230 0.7589 -0.7223 0.1301 2.3080 0.6889 0.0190 0.3275 3.5478 1.1507 -1.5410 -2.8206 0.1353 -0.0560 -4.2968 -1.7584 -0.0394 -5.1839 0.4941 -0.1133 -5.6559 -2.2615 -0.0168 -6.4444 0.0312 -0.0706 -1.2660 1.2953 3.1046 -8.1205 -1.7924 0.0839 2.9287 0.2954 -0.5351 -0.6264 0.4048 0.8197 1.5540 0.9103 -0.2806 -1.6142 -0.5150 0.1350 4.6606 0.8079 -2.2753 -4.0651 -0.4320 -0.0677 -6.6912 -1.3997 -0.0000 4.9192 1.7266 -3.4338
-1.9464 4.6274 -1.6122 -3.4174 2.9305 -0.6058 -4.4136 -5.2198 3.5657 -6.4703 -4.0204 2.8833 -0.2617 -0.4533 -6.3367 6.6579 -0.2451 1.4557 5.0851 0.9121 2.4234 4.6606 -1.0858 1.6580 2.0365 3.0567 -0.6298 -1.2801 -0.5832 -0.8855 5.7515 1.3851 -0.5522 0.7316 0.3941 -5.7031 1.2313 -0.3071 -4.4655 2.1842 0.5934 -3.7188 2.4938 -0.0197 -2.3763 -1.0922 2.3410 -1.2455 0.8493 1.0806 -0.3936 3.6890 0.3578 -0.3087 -1.8631 0.1706 1.2503 -2.8869 -1.9837 1.0325 -3.3510 -0.6098 2.9678 -3.7171 -3.0233 1.6024 -4.1042 -1.5838 3.5113 -1.9943 3.4261 -0.7020 -5.1034 -3.8765 3.5081 3.0263 1.0163 -1.4105 -0.4864 1.5502 -0.1030 1.9238 1.8436 -0.7834 -1.2474 0.2537 0.0129 4.9727 0.6740 0.0758 -2.7075 -0.8172 1.6799 -4.2871 -2.8467 2.8097 5.3366 0.0624 1.3957
1.0908 0.6731 3.4583 -0.8380 -0.4706 4.5044 -7.9653 -2.6718 0.2033 -7.7510 -2.5014 -2.2571 6.7627 0.3648 3.8871 1.8626 2.6631 -3.7878 3.9429 3.1428 -3.3338 3.4677 1.6369 -4.8314 1.8919 2.0397 0.7882 -0.7946 -1.1923 -1.0630 2.6863 -0.0987 -2.8867 5.6675 -0.5795 4.0241 4.5068 -0.1264 3.1687 4.6625 -0.5639 1.7262 4.5418 0.6384 0.8060 -0.3726 -0.9368 2.1194 1.2191 -0.1580 0.4230 3.6021 1.3667 -1.3525 -2.3309 0.1214 0.1024 -3.7157 -1.5069 -0.9797 -4.7055 0.3374 0.2420 -5.0472 -2.0097 -1.2405 -5.9426 -0.1240 -0.0051 0.2361 -0.5668 3.4497 -7.5287 -1.7931 -0.9426 3.4282 0.4764 -0.2144 -0.1242 -0.0136 0.9445 2.1133 0.8981 0.3952 -1.0894 -0.4446 -0.1357 3.0951 1.0234 -2.5911 -3.5474 -0.3902 -0.2475 -6.1214 -1.3559 -0.7577 3.0968 2.1221 -3.6160
-1.0823 1.4564 3.3045 -1.9825 -0.6855 4.1518 -7.8578 -0.4647 -2.4120 -8.0893 -1.9680 -0.4549 6.9131 0.9590 4.1659 4.2276 1.3935 -4.4244 2.0843 1.0436 -4.5796 2.8285 2.6610 -3.3294 1.9803 1.9871 0.6592 -0.5758 -1.6401 -0.5043 2.7657 -0.7481 -2.6780 5.8759 -0.0575 4.1642 4.7654 0.3779 3.2382 4.8895 -0.3011 1.8925 4.6824 0.7171 0.7918 -0.0556 -0.7750 2.5849 1.4070 -0.2647 0.7196 3.6840 0.9632 -1.4174 -2.1415 -0.1850 0.4403 -3.4391 -1.4811 -1.1077 -4.4948 0.1700 0.3150 -4.7462 -1.8239 -1.6350 -5.7049 -0.1384 -0.1788 -0.7479 0.0303 3.6639 -7.2090 -1.5730 -1.6180 3.5447 0.3207 -0.1256 0.0727 -0.0915 1.2404 2.2373 0.8057 0.4529 -0.8887 -0.7501 0.2789 3.1438 0.4155 -2.5631 -3.3174 -0.5406 -0.1524 -5.8426 -1.1945 -1.1725 3.0733 1.3815 -3.7106
-0.6809 3.3105 4.2148 -2.4551 1.9941 3.1360 -6.0601 -2.7550 -3.2506 -7.4858 -1.3109 -1.8343 5.8329 3.5070 4.1288 2.5141 -0.1645 -4.3824 1.3806 -1.9667 -3.9231 0.7672 -0.0570 -3.0795 2.1802 -1.4600 1.4094 -0.5632 0.9048 -0.6107 3.2943 -2.1491 -2.0285 6.0908 2.7115 2.9429 4.8157 2.0086 2.5463 5.1070 1.0124 1.4490 4.1658 1.2322 0.2873 -0.2041 2.0969 2.1355 1.5397 0.7564 1.1898 2.8587 0.0364 -1.3862 -1.6449 -0.5810 0.8321 -3.1335 -0.3483 -1.0319 -3.7265 -1.7942 0.8110 -4.3243 -0.7901 -1.7286 -4.8210 -2.2251 0.1558 -0.9756 2.0557 3.4300 -6.3340 -2.2873 -1.8396 3.4364 -0.0475 -0.0641 0.1769 0.7062 1.6735 2.3161 -0.3459 0.9103 -0.7017 0.3764 0.4882 2.7395 -1.0675 -2.2058 -2.8310 -0.8288 0.1889 -5.1272 -1.7197 -1.1759 1.8530 -0.8105 -3.3884
-0.4505 -1.1084 4.5841 1.6913 -0.7351 3.4384 -7.2193 -4.2088 -0.6187 -8.0734 -2.2793 -1.9195 5.0375 -0.2872 2.6262 4.1400 -0.1566 -4.2725 2.0801 0.0015 -3.5901 3.1252 1.7654 -4.3375 1.2401 2.7865 1.0973 -0.8815 -0.7680 -0.9593 4.9961 0.8642 -1.9645 5.8207 0.8871 2.9679 5.7973 1.8573 1.8103 4.5100 2.6497 1.8111 3.9319 2.7235 0.4145 -0.4117 -0.6701 2.1934 0.9240 0.5519 0.5493 2.8415 1.4484 -1.3615 -2.6094 0.1510 0.3067 -3.6903 -1.6658 -0.8278 -4.9704 -0.1173 0.5279 -4.9119 -2.3972 -1.0944 -6.0995 -0.8094 0.3053 0.2422 -0.3055 3.5017 -7.3646 -2.7079 -0.6600 3.0449 1.5350 0.0761 -0.3962 0.3957 1.1179 1.6490 1.7272 0.6315 -1.2878 -0.1437 0.0166 3.7981 0.9561 -2.2211 -3.7131 -0.5767 -0.0366 -6.0659 -2.0050 -0.5207 3.2757 0.6417 -3.5918
-1.2811 1.6247 4.8956 0.7313 2.6696 3.9380 -7.0324 -4.0569 -1.0900 -7.1943 -2.3062 -2.8343 6.3007 0.3581 2.5260 2.5649 -1.8686 -3.9384 2.4299 0.2926 -4.1539 4.3822 -0.6690 -3.9946 0.9863 2.3617 -0.6833 -0.6064 -1.4592 0.5403 2.9282 -1.5124 -1.2754 6.0086 1.7102 2.9681 5.6409 2.5470 1.7675 4.1534 2.4774 1.5233 3.8874 2.3952 0.0386 -0.1862 0.6051 2.9366 1.0712 0.6405 0.8835 3.2226 0.7618 -1.6373 -2.4207 -0.0192 0.8473 -3.3054 -1.7565 -0.5564 -4.7862 -0.1399 0.4638 -4.4659 -2.4149 -1.1269 -5.8641 -0.7541 -0.0570 -0.5315 1.9076 3.6174 -6.9636 -2.5735 -1.3668 3.0527 1.1749 -0.2666 -0.2581 0.7632 1.4321 1.5912 1.4888 -0.0717 -1.0815 -0.3777 0.8736 3.0715 -0.5541 -2.0289 -3.4522 -0.6709 0.2262 -5.7046 -1.9481 -0.8751 3.1107 -0.6971 -3.5213
-1.3969 0.8046 4.7376 0.8726 0.3373 3.9492 -8.1669 -3.3067 0.4623 -8.3949 -2.3785 -1.8294 7.7675 -0.4565 2.5863 2.8904 0.6968 -4.2912 4.4749 2.1311 -3.8387 4.9780 0.0973 -4.4270 1.2874 2.4098 0.1211 -1.2284 -1.3527 -0.3949 4.9224 -0.4295 -1.8595 6.5857 0.3383 2.8699 6.2880 1.2451 1.6978 5.2805 0.5881 0.7837 3.9381 1.2852 0.8300 -1.0300 0.0614 2.4379 0.6693 0.2425 0.6725 3.1447 1.0079 -1.4840 -2.8511 0.2627 0.0194 -4.1615 -1.7155 -0.3662 -5.2398 0.4267 -0.0434 -5.4726 -2.3228 -0.4932 -6.4564 -0.1363 -0.1427 -0.4669 0.9105 3.5488 -7.9724 -2.0893 -0.4099 2.9139 0.6368 -0.0948 -0.7098 0.5364 1.0337 1.5499 1.2146 0.2320 -1.5940 -0.3084 0.1369 4.1024 0.3926 -2.2625 -4.0434 -0.3948 -0.1293 -6.5813 -1.5692 -0.3576 4.1007 0.8348 -3.6949
0.5738 1.6633 3.5038 -1.4826 0.8568 4.6246 -7.9221 -3.1561 -0.2277 -8.0331 -1.8854 -2.3584 7.5239 1.3969 3.3035 2.4603 0.1697 -4.5322 2.8684 2.0879 -3.5913 4.5048 0.7095 -4.0245 1.6334 2.2462 0.4480 -0.9419 -1.3249 -0.5208 2.6630 -1.0409 -2.1599 7.4953 0.0977 2.6544 6.0636 -0.2676 2.3324 5.6165 0.3372 1.0183 4.2587 0.9944 1.1635 -0.8161 -0.2275 2.5032 0.9657 0.0509 0.8309 3.4891 0.8888 -1.1846 -2.5387 0.2567 0.1035 -3.8647 -1.5904 -0.6570 -4.9054 0.5168 -0.0616 -5.1801 -2.1322 -0.9262 -6.1280 0.0107 -0.2893 -0.3190 0.4736 3.7436 -7.6694 -1.8284 -0.8968 3.2326 0.4595 0.1781 -0.4183 0.3435 1.1561 1.8760 1.0437 0.5068 -1.2958 -0.3535 0.1402 3.0688 0.1159 -2.2501 -3.7306 -0.3216 -0.2276 -6.2712 -1.3703 -0.7172 3.2232 0.7791 -3.5858
-1.4520 1.1810 4.5782 0.8407 0.6545 3.8834 -8.0794 -3.4225 0.6165 -8.2641 -2.7447 -1.7654 7.5860 2.5563 0.7984 3.7500 -0.5906 -4.4009 3.2231 1.4514 -3.8628 5.2659 0.7348 -3.5754 1.3723 2.3701 0.0541 -1.1499 -1.5073 -0.2914 3.5950 -1.3074 -1.8331 7.5176 1.5169 1.8107 6.1074 1.4331 2.3478 5.2221 0.5903 1.4521 3.9224 1.3245 1.1955 -1.0305 0.2265 2.3725 0.7128 0.2216 0.6346 3.4605 0.9072 -1.1742 -2.7951 0.1260 -0.0722 -4.0752 -1.8952 -0.2912 -5.1777 0.2602 -0.2279 -5.3776 -2.5253 -0.3826 -6.3869 -0.3224 -0.2908 -0.4929 1.1830 3.4062 -7.8791 -2.3026 -0.3755 3.0350 0.6215 0.1837 -0.6755 0.5347 0.9308 1.6339 1.1913 0.2788 -1.5333 -0.4148 0.1166 3.6325 -0.1069 -2.0931 -3.9749 -0.5553 -0.1993 -6.4933 -1.7707 -0.3506 3.9601 0.3807 -3.4732
-1.9740 3.9736 2.4380 0.0578 3.1322 3.5236 -7.3502 -3.2381 2.1207 -7.4594 -3.8449 -0.2849 6.4431 0.2626 -2.3831 2.5730 -3.1872 -0.6843 2.5806 -1.8759 -2.4207 4.4648 -2.4821 -1.4965 1.3759 2.7269 -1.2560 -0.6625 -1.0650 0.4430 2.9862 -1.0888 0.9074 7.2275 1.3479 -1.8210 6.3488 2.5628 -1.6430 5.5387 2.4527 -0.3691 4.0781 2.6308 -0.7119 -1.0110 1.7972 1.8128 0.8859 1.1697 0.3958 3.3699 0.2809 -0.9240 -2.4992 0.1932 -0.2418 -3.5099 -1.8277 0.5673 -4.8637 -0.0877 -0.4386 -4.7185 -2.5910 0.8038 -5.9877 -0.7844 -0.2032 -0.6846 3.2144 2.2084 -7.2219 -2.7322 0.7049 3.1837 1.5197 -0.1920 -0.5483 1.3647 0.4366 1.7312 1.8923 -0.4287 -1.2046 0.0130 0.2188 3.1536 -0.9342 -0.3008 -3.5781 -0.6143 -0.0122 -5.9147 -2.0749 0.4612 3.1893 -2.1060 -1.2308
-2.3528 3.1629 3.8974 -0.5355 4.3774 2.7642 -7.0677 -4.2034 0.3042 -7.0029 -3.3322 -2.0096 6.7007 3.4478 -1.6007 4.2868 -3.0824 -2.8013 2.2643 -2.3027 -3.0301 3.9824 -1.0632 -3.5519 0.8711 0.8286 -1.2016 -0.8202 -1.0475 1.5101 3.6192 -2.1855 -0.2608 6.9615 3.1900 -0.1956 5.6622 3.2651 0.5679 5.0106 1.9052 0.6301 3.6323 1.9985 0.0223 -0.5745 1.9082 2.7411 0.9434 0.9998 1.1127 3.4325 -0.0770 -1.2033 -2.5763 0.3690 0.8972 -3.3575 -1.8056 0.2362 -4.8927 0.0580 0.3347 -4.4694 -2.6630 -0.1338 -5.9273 -0.7367 0.0011 -1.4198 3.1571 2.7129 -6.9324 -2.9614 -0.5471 2.9846 0.6345 -0.0303 -0.4438 1.3351 1.3462 1.4917 0.8348 -0.1439 -1.2704 0.0668 1.2593 3.5481 -1.4501 -1.2404 -3.5563 -0.4983 0.4891 -5.7161 -2.1603 -0.2266 3.5239 -1.9694 -2.6496
-1.5476 1.4759 -4.1524 -3.4437 1.4407 -2.5283 -6.1675 -0.6948 4.8729 -6.0200 -3.0629 4.1402 3.2043 -2.7011 -6.1828 4.3346 2.4039 3.1741 3.5156 0.3901 3.0836 5.6319 0.7311 2.6680 1.4579 -1.1938 -0.4312 -0.4580 0.6697 1.0346 4.2024 2.5738 0.5133 3.9350 -1.7047 -5.4181 3.1887 -1.4342 -4.1321 3.8091 -0.2770 -3.3787 3.9658 -0.6267 -1.9120 -1.1254 2.1215 -1.7589 0.9327 0.8992 -1.3166 3.7575 0.3084 0.3392 -2.2674 -0.2021 -0.1617 -2.7716 -0.6988 2.1159 -4.4884 -0.8796 0.4153 -3.7564 -1.0634 3.1095 -5.4065 -1.2158 1.3378 -2.1224 2.0672 -2.8935 -6.1275 -1.6277 3.6855 3.2228 0.3437 -1.0119 -0.5124 0.7844 -1.3821 1.7866 -0.1011 -0.8833 -1.0486 0.4362 -0.0139 4.0938 1.4601 1.0214 -3.1295 -0.5709 0.8261 -5.0323 -1.2881 2.7418 4.3866 1.2368 2.4783
-1.2833 -3.5465 2.8117 0.6675 -2.2778 3.5718 -7.9171 -2.6306 -1.3298 -8.4481 -0.2167 -1.5524 6.2793 -0.3193 4.6169 3.5827 3.6446 -3.3403 3.5391 1.9586 -4.7133 1.8174 2.3689 -3.4542 1.9899 1.2989 1.7218 -1.0985 -0.3190 -1.3488 4.8365 0.8786 -2.5938 5.9217 0.8322 3.8069 6.3238 0.5919 2.3678 5.1695 0.0263 1.5627 4.5509 1.0774 0.6639 -0.2102 -1.9530 1.2976 1.1127 -0.2284 0.2098 3.0578 1.4532 -1.2325 -2.4294 0.0008 0.5366 -3.9971 -0.7334 -1.1171 -4.7429 -0.0620 1.0935 -5.3653 -1.0552 -1.4547 -6.0115 -0.3778 0.7913 -0.5943 -2.1986 2.7420 -7.7484 -1.2616 -0.7220 3.3566 0.5516 -0.1263 -0.1450 -0.4922 0.8865 2.0979 0.5978 0.7195 -1.2456 -0.2564 -0.1322 3.7794 1.4763 -2.4064 -3.6953 -0.2717 0.1106 -6.3254 -0.9129 -0.5217 3.1747 2.3562 -3.4656
-3.0325 1.6477 -3.4598 -1.1770 0.4632 -4.5312 -6.9473 -1.6600 3.9897 -7.7964 -0.1278 2.2406 5.8358 -3.5133 -3.8513 3.1499 3.2714 2.8567 3.5617 1.1601 3.1820 5.1641 2.5063 2.5583 1.8787 -1.3126 0.1728 -0.3585 0.5218 0.9653 3.0998 2.8673 0.2128 4.5914 -2.9673 -4.3648 3.7876 -2.3912 -3.2214 4.2175 -0.9764 -2.8922 4.3693 -0.8159 -1.3912 -1.0505 1.0653 -2.1381 1.1002 0.2847 -1.3413 3.8587 0.6978 0.4762 -1.9914 -0.8653 0.0673 -3.1105 0.1422 1.9373 -4.1873 -1.5873 0.6246 -4.3105 0.2410 2.7452 -5.2967 -1.5019 1.3735 -1.9654 0.5939 -3.2483 -6.6571 -0.4103 3.1932 3.4250 0.2343 -0.8344 -0.3190 -0.0419 -1.3961 2.0654 -0.3827 -0.6062 -0.8713 -0.0603 0.0144 3.5434 1.9671 0.9237 -3.0584 -0.7221 0.9055 -5.3707 -0.5383 2.4629 3.8523 2.2107 2.3742
-2.4814 4.2172 -0.6258 -0.7300 4.2238 -2.3413 -7.0783 -0.0594 3.8915 -7.3803 -2.3019 2.8707 8.0761 -3.0296 -3.8819 3.7345 0.6489 3.2169 1.7663 -0.0705 2.6332 3.5114 -1.3585 2.4067 1.1111 -1.1375 -2.3284 -0.5682 -0.4076 0.8016 3.4559 1.6916 0.7329 7.4291 -2.1184 -2.9539 6.0059 -1.8723 -3.4019 5.3580 -0.7967 -2.5487 3.8728 -1.0668 -2.4105 -0.7421 2.4826 -0.6073 0.9591 0.8330 -1.1009 3.3236 -0.4722 -0.0902 -2.4609 -0.0475 -0.5082 -3.3889 -0.6201 1.6234 -4.8272 -0.2307 -0.2919 -4.5691 -0.8396 2.4309 -5.9247 -0.4148 0.4589 -1.6183 3.3324 -1.5026 -7.0683 -0.8509 2.6079 3.1364 -0.1068 -1.4838 -0.4746 1.0767 -1.1230 1.6323 -0.2145 -1.7092 -1.1365 0.1242 -0.1467 3.3014 0.4847 0.9080 -3.5124 -0.3095 0.3195 -5.7889 -0.7090 1.8754 3.0764 -0.0806 2.2784
-2.9111 3.0551 -1.4174 -3.4307 3.6846 0.9270 -6.8828 -4.2712 2.0973 -7.0432 -2.5182 3.8421 5.7516 2.9689 -4.6674 6.2997 -1.0442 1.6595 4.2311 -1.6782 1.8952 5.4428 -2.4830 0.2674 0.8392 -0.7029 -1.3754 -0.4746 -0.2458 1.3396 5.5536 0.6434 -0.2754 4.3550 3.0686 -5.0530 3.6651 1.7636 -4.7327 2.9816 1.8409 -3.3858 3.2211 0.5603 -2.6168 -1.1628 2.7763 0.4321 0.6407 1.4506 -0.5082 3.4470 -0.3176 -0.3472 -2.5557 0.0676 0.3243 -2.8780 -1.8314 1.7420 -4.7767 -0.6860 0.7664 -3.7970 -2.7127 2.4327 -5.6303 -1.5161 1.3873 -2.3445 3.5498 -0.1112 -6.1014 -3.3791 3.0317 2.7978 0.6923 -1.1655 -0.7949 1.5021 -0.3047 1.3250 0.3767 -1.0503 -1.2233 0.3465 0.5707 4.7572 -0.2256 0.0703 -3.3475 -0.8302 0.9756 -5.1240 -2.5509 2.2795 5.1701 -1.3542 0.9703
-3.5635 3.1574 -1.4475 -2.0858 2.6275 -3.3214 -6.9574 -3.1580 3.8929 -7.7661 -0.8988 3.2761 5.6367 1.8954 -4.6693 5.7974 -0.6289 2.1323 5.8501 1.5283 2.4202 4.0028 0.4338 2.7724 1.3274 -1.4690 -0.5874 -0.5307 -0.2732 1.1512 5.4392 1.3616 -0.2521 4.7241 0.9841 -5.3372 4.5511 -0.2479 -4.4809 3.3276 -0.1093 -3.6037 3.6375 -0.5875 -2.2029 -1.5171 1.8638 -1.0397 0.5684 0.6472 -1.2141 3.5515 0.0815 0.1435 -2.4385 -0.9106 -0.0012 -3.1650 -0.8686 2.2861 -4.6456 -1.6330 0.5279 -4.2287 -1.0907 3.2462 -5.6287 -1.8486 1.4150 -2.6453 2.0993 -2.0208 -6.5764 -1.7039 3.7472 2.9192 0.2460 -1.1558 -0.8797 0.4865 -1.1278 1.5298 -0.3153 -0.9571 -1.2392 -0.2447 0.1492 4.7187 0.7179 0.5067 -3.3721 -1.1058 0.9763 -5.4228 -1.5467 2.8247 5.0811 0.5104 1.9512
-0.0945 -4.6787 0.9289 1.8700 -3.4522 0.1247 -8.2516 -1.9025 -1.6264 -8.6298 0.4588 -0.9597 7.8796 -1.3648 2.8298 3.5891 4.2039 -3.0012 2.0954 2.7123 -3.5376 1.8138 3.9556 -1.7675 1.7834 0.5518 2.1935 -1.2803 0.3965 -1.0457 4.6307 1.9050 -1.9869 6.6779 -0.8492 3.4621 6.1516 0.3180 2.6584 5.0561 -0.1312 1.7149 4.3156 1.0686 1.1667 -0.3195 -2.3610 0.2031 1.0098 -0.3184 0.1861 2.7926 1.8123 -0.5790 -2.5089 -0.3569 0.7817 -4.1754 -0.4086 -0.9528 -4.8132 -0.5189 1.3798 -5.5795 -0.5141 -1.3073 -6.1100 -0.6484 1.0531 0.5879 -3.3300 0.9150 -7.9663 -0.8443 -0.5876 3.1909 0.6683 0.2239 -0.2075 -0.9289 0.6822 1.9345 0.3119 0.9991 -1.3647 -0.2113 0.0171 3.4933 2.2532 -1.6799 -3.8027 -0.4100 0.3415 -6.5112 -0.6608 -0.3445 2.7429 3.2743 -2.4855
-2.6323 3.0574 2.2038 -0.6683 4.2933 3.0121 -7.8421 -2.6091 -1.2117 -7.6215 -3.0165 1.2226 7.5182 3.7746 -2.3395 3.5349 -3.4323 -1.5001 1.7016 -3.4939 -0.3241 1.7900 -2.2848 -2.1306 1.5309 2.2604 -1.3669 -0.5331 -1.0115 1.1120 3.1410 -1.5815 0.9907 7.6869 2.9742 -1.1398 6.3548 2.8595 -0.4407 5.7031 1.5390 -0.7702 4.2816 1.7850 -1.2165 -0.3991 2.0102 2.1319 1.1768 1.0542 0.5865 3.2556 -0.4007 -1.0024 -2.3168 0.3151 0.3884 -3.2577 -1.9026 0.3076 -4.6608 0.0411 0.0044 -4.4396 -2.7366 0.1510 -5.7559 -0.7278 -0.1286 -1.1600 3.3043 1.9864 -6.8937 -2.9996 -0.1013 3.3210 0.9243 -0.4281 -0.2208 1.3641 0.7754 1.9210 1.4964 -0.4901 -1.0078 0.0676 0.7730 2.9966 -1.5134 -0.2269 -3.3613 -0.5607 0.2609 -5.6506 -2.1780 -0.0447 2.5073 -2.6718 -1.0447
-0.4575 0.5462 4.9491 1.6772 0.7063 3.7558 -7.2109 -4.2329 -0.8575 -7.6360 -2.4822 -2.5580 7.8319 4.1505 2.3903 1.9319 -2.1706 -3.2069 1.6645 -0.0699 -3.7033 3.6312 -0.9937 -3.8940 1.2153 2.7837 0.1986 -0.6808 -1.3865 -0.2329 2.9304 -1.4686 -0.8310 6.4176 3.8378 2.5026 5.9964 3.0750 1.2688 4.5099 2.7986 1.2862 4.0147 2.5054 -0.1154 -0.3435 -0.0583 2.5885 1.0011 0.5176 0.6562 3.0308 0.7498 -1.4879 -2.4950 -0.0732 0.4383 -3.5126 -1.8611 -0.8016 -4.8806 -0.2423 0.3646 -4.7242 -2.5440 -1.2119 -6.0056 -0.8814 -0.0029 0.1837 0.8946 3.6280 -7.2232 -2.7472 -1.1311 3.0995 1.2980 -0.1476 -0.3391 0.5350 1.1975 1.6769 1.6484 0.2400 -1.1568 -0.4261 0.3642 2.8426 -0.6019 -1.6979 -3.5801 -0.7667 -0.0210 -5.9275 -2.0924 -0.8078 2.5181 -0.9479 -3.1203

>  <OB_ATOM_TYPES> (1elbA1)
C.3 C.3 C.3 C.3 N.3 F F F O.2 O.2 O.2 C.3 C.3 C.3 C.3 C.3 N.am N.am N.am C.ar C.ar C.ar C.ar C.3 C.3 C.3 C.3 C.2 C.2 C.2 C.ar C.ar C.3

>  <ENSEMBLE_RMSD> (1elbA1)
0.000 2.209 2.334 2.364 2.464 2.809 2.826 2.862 2.945 2.962 2.976 3.006 3.009 3.085 3.123 3.128 3.133 3.232 3.267 3.277 3.310 3.387 3.429 3.484 3.535 3.549 3.572 3.870 3.876 3.925 3.955 4.017 4.149 4.154 4.157 4.158 4.189 4.191 4.313 4.318 4.396 4.478 4.495 4.495 4.507 4.647 4.667 4.678 4.697 4.736

$$$$
