
 OpenBabel03071213D

 36 37  0  0  0  0  0  0  0  0999 V2000
   33.7410   21.4370   30.5710 C   0  0  0  0  0
   32.3370   23.4620   31.2430 C   0  0  0  0  0
   43.7640   14.7820   38.3030 N   0  0  0  0  0
   44.5760   22.5880   35.9040 F   0  0  0  0  0
   43.3400   22.1380   34.2310 F   0  0  0  0  0
   42.5450   23.2360   35.9070 F   0  0  0  0  0
   39.5500   20.1350   39.5140 O   0  0  0  0  0
   36.1860   20.7300   37.5860 O   0  0  0  0  0
   43.2220   19.6600   35.7850 O   0  0  0  0  0
   42.4190   14.8100   38.8540 C   0  0  0  0  0
   42.0520   16.1940   39.4090 C   0  0  0  0  0
   41.7310   17.1930   38.3090 C   0  0  0  0  0
   41.6950   18.6340   38.8360 C   0  0  0  0  0
   39.0710   22.9630   36.7310 C   0  0  0  0  0
   39.2820   20.8490   37.3710 N   0  0  0  0  0
   41.9850   20.7120   37.3110 N   0  0  0  0  0
   36.5460   22.4810   36.0050 N   0  0  0  0  0
   40.2460   26.1450   39.2320 C   0  0  0  0  0
   40.7890   24.8850   39.4520 C   0  0  0  0  0
   39.3470   26.3550   38.2160 C   0  0  0  0  0
   40.4130   23.8390   38.6290 C   0  0  0  0  0
   38.9750   25.3110   37.3900 C   0  0  0  0  0
   35.2290   21.1470   34.5420 C   0  0  0  0  0
   34.9690   23.5580   34.5920 C   0  0  0  0  0
   34.3760   21.0890   33.4530 C   0  0  0  0  0
   34.1070   23.5020   33.4970 C   0  0  0  0  0
   32.9050   22.1250   31.6650 C   0  0  0  0  0
   41.1470   19.5470   37.7390 C   0  0  0  0  0
   38.3090   21.8990   37.4870 C   0  0  0  0  0
   39.9350   20.2470   38.3590 C   0  0  0  0  0
   36.8880   21.5760   36.9920 C   0  0  0  0  0
   42.8050   20.7570   36.2120 C   0  0  0  0  0
   39.5100   24.0670   37.6060 C   0  0  0  0  0
   35.5440   22.3810   35.1150 C   0  0  0  0  0
   33.8090   22.2580   32.9150 C   0  0  0  0  0
   43.3350   22.1690   35.5980 C   0  0  0  0  0
  1 27  1  0  0  0
  2 27  1  0  0  0
  3 10  1  0  0  0
  4 36  1  0  0  0
  5 36  1  0  0  0
  6 36  1  0  0  0
  7 30  2  0  0  0
  8 31  2  0  0  0
  9 32  2  0  0  0
 10 11  1  0  0  0
 11 12  1  0  0  0
 12 13  1  0  0  0
 13 28  1  0  0  0
 14 29  1  0  0  0
 14 33  1  0  0  0
 15 29  1  0  0  0
 15 30  1  0  0  0
 16 28  1  0  0  0
 16 32  1  0  0  0
 17 31  1  0  0  0
 17 34  1  0  0  0
 18 19  1  0  0  0
 18 20  2  0  0  0
 19 21  2  0  0  0
 20 22  1  0  0  0
 21 33  1  0  0  0
 22 33  2  0  0  0
 23 25  1  0  0  0
 23 34  2  0  0  0
 24 26  2  0  0  0
 24 34  1  0  0  0
 25 35  2  0  0  0
 26 35  1  0  0  0
 27 35  1  0  0  0
 28 30  1  0  0  0
 29 31  1  0  0  0
 32 36  1  0  0  0
M  END
>  <MOLID> (1elcA1)
1elcA1

>  <SMILES_CANONICAL> (1elcA1)
NCCCC[C@@H](C(=O)N[C@H](C(=O)Nc1ccc(cc1)C(C)C)Cc1ccccc1)NC(=O)C(F)(F)F	

>  <FINGERPRINT> (1elcA1)
0000000000000001010000000000001000000001000000000011101000000000000000000001000000000001001000000100010000000001000001100000000000100000000000000000000000000000000000000000000000100000110000000000000000000000000000000000000000100000000000000000000000001100000000000000000000001000100000001000000000001000000010101100000000001000001110000000000000000100010000000000000110110000000000000000011000000000100000000000101000000000010100001010000000000001100000000000001000000000010000000000000000000100000000000000000000000000000001000000000000000000000000100000000000000000000000000000100000000000001000000000100000000000000000000000001000000101010000000001000000000001000000000011100000100100000001100011000000100000000000000010000000000011100000110111000000000000000110100000000000000000000010000000000010000000000000000000000000000000000000000000000000000000000000001001000000000000000000001000000000001100000000001000000000000000000000000000011000000000000010110010000000000000010000000000000000000000000000000010011000000000

>  <MACCS166> (1elcA1)
000000000000000000000000000000000000000001001000010001000000000000000000010100100101000001110010001100010111011100001100000010001010111101011100111010101111011110111000

>  <OB_MW> (1elcA1)
506.25

>  <OB_logP> (1elcA1)
5.2072

>  <OB_PSA> (1elcA1)
113.32

>  <OB_MR> (1elcA1)
131.986

>  <OB_ATOMIC_CHARGES> (1elcA1)
0.0046849662 0.0046849662 -0.1313873305 -0.162004199 -0.162004199 -0.162004199 -0.271475712 -0.2711161943 -0.2641877259 0.1093073196 0.0205711161 0.0038068377 0.0311479408 0.0574271455 -0.1959746756 -0.1907043369 -0.1777633654 -2.0017e-05 -0.0003216891 -0.0003216891 -0.0041981876 -0.0041981876 0.0162751175 0.0162751175 -0.0029419865 -0.0029419865 0.0223537966 0.1729848972 0.1774212937 0.2616179658 0.2657448355 0.3371093288 -0.0199562728 0.07339803 -0.022420035 0.4711313143

>  <MCT_HBD> (1elcA1)
4

>  <MCT_HBA> (1elcA1)
7

>  <ENSEMBLE_TOTAL> (1elcA1)
50

>  <ENSEMBLE_COORDS> (1elcA1)
-6.7505 1.3670 -4.5346 -5.0054 2.8730 -5.4173 4.7990 -5.4470 5.4528 4.3330 -2.5935 -2.7657 2.6741 -1.2279 -3.1481 4.6912 -0.4520 -2.8944 0.2253 -2.7478 1.0058 -0.3686 -0.3100 -1.2112 3.8938 -0.2103 -0.3536 5.1614 -4.2668 4.6872 4.6154 -4.4066 3.2853 3.4732 -3.4458 3.0497 2.8762 -3.6752 1.6771 0.4522 1.6720 1.3131 1.0761 -0.5832 1.0794 3.0210 -2.3577 -0.3837 -2.1443 0.6965 -0.0791 -2.2597 4.2332 3.3862 -1.5518 3.1846 4.0999 -2.0351 4.4313 2.0751 -0.6817 2.3950 3.4450 -1.0887 3.5873 1.3724 -2.7987 0.6757 -2.3858 -4.1753 1.8305 -0.7739 -3.7110 1.0948 -3.4279 -5.0220 2.2320 -1.7442 -5.7118 2.4011 -4.1645 2.6183 -2.3498 1.0028 -0.0998 0.2673 1.1294 1.1585 -1.9558 1.0334 -0.8498 0.1926 -0.1985 3.5913 -1.2368 -0.9575 -0.4675 2.5882 2.0217 -2.9853 1.0549 -1.1076 -4.7699 1.8736 -3.1360 3.8168 -1.3841 -2.4327
-6.0623 2.7062 -4.6215 -7.1280 0.5279 -4.0842 3.5867 -5.9518 4.6752 4.1224 -2.1798 -2.8894 4.1253 0.0007 -2.8330 5.9981 -1.0996 -2.6575 0.5589 -2.2575 1.1155 0.0156 0.2053 -1.2769 5.4275 -0.7924 -0.0259 2.3069 -5.4096 4.2558 2.4199 -4.9285 2.8330 2.8599 -3.4851 2.7902 3.2528 -3.1813 1.3678 0.4424 2.1435 1.2751 1.3068 -0.0590 1.1326 3.2817 -1.5786 -0.4231 -1.9607 0.8067 -0.1805 -2.3432 4.3505 3.6430 -2.2209 4.5847 2.2154 -1.5570 3.4433 4.2495 -1.3244 3.8893 1.4942 -0.5897 2.6901 3.4728 -2.6393 0.3577 -2.4376 -4.1786 1.4254 -0.9116 -3.6419 0.4606 -3.4796 -5.1173 1.5096 -1.8747 -5.8225 1.2480 -4.3149 2.9307 -1.7647 0.9655 0.0629 0.6851 1.0948 1.4587 -1.4269 1.0672 -0.5985 0.5357 -0.2666 4.5339 -1.1336 -0.7955 -0.4997 2.8854 2.1453 -2.8681 0.8599 -1.2094 -4.8309 1.0376 -3.2247 4.6920 -1.1046 -2.2862
-6.3193 -0.0936 -4.6287 -6.1402 2.3434 -5.0552 4.4755 -5.9134 3.3364 4.5324 -0.4688 -3.1796 5.9747 -2.0228 -2.6763 3.8769 -2.5345 -2.9428 0.4443 -2.0681 0.7794 -0.1309 0.5249 -1.4256 5.3503 -0.8143 -0.2674 3.8658 -4.9289 4.2122 2.6861 -4.3155 3.4989 3.0755 -2.9758 2.9227 2.9966 -3.0489 1.4174 0.2756 2.2119 1.4566 1.2537 0.1064 0.8506 3.2218 -1.6856 -0.5665 -1.9865 1.3017 -0.2444 -2.5192 3.7563 4.3104 -1.5512 2.7449 4.6949 -2.5647 4.1971 3.0407 -0.6938 2.2492 3.7841 -1.6280 3.6760 2.0620 -4.2681 1.4968 -0.7384 -2.7354 1.1451 -2.5746 -5.3592 1.5309 -1.6942 -3.7442 1.1762 -3.4628 -6.2257 1.2737 -3.9936 2.8301 -1.6688 0.8244 -0.0098 0.7977 0.9825 1.3739 -1.2682 0.8163 -0.6873 0.8407 -0.3786 4.4868 -1.3226 -0.9774 -0.7435 2.7238 2.4107 -3.0075 1.2654 -1.1508 -5.1160 1.3575 -3.0068 4.7103 -1.5899 -2.4362
-5.2656 2.5384 -4.7672 -5.5921 0.1030 -5.1220 3.6639 -5.7526 3.5795 3.0781 -2.7070 -3.4864 1.2634 -1.5925 -3.0206 3.1377 -0.5336 -3.3576 -0.1714 -2.1884 1.9051 -2.6554 0.8787 1.4346 4.1473 -1.6966 -0.9906 4.8055 -4.8690 3.4157 4.3216 -3.4897 3.0330 3.9259 -3.4352 1.5754 2.4225 -3.3090 1.4421 0.3239 2.1993 1.6545 0.7385 -0.0926 1.4859 1.8910 -1.9111 -0.5014 -1.2220 0.5558 -0.3776 -1.0047 5.0983 4.4622 -1.2139 5.2703 3.0366 -0.3671 4.0106 4.9313 -0.7745 4.3350 2.1797 0.1187 3.0031 4.0073 -1.5116 0.6695 -2.6963 -3.4948 0.6168 -1.3130 -2.3631 0.8323 -3.8584 -4.2861 0.7837 -2.3874 -4.5809 1.1970 -4.8791 2.0451 -1.9371 0.9369 -0.3015 0.8370 1.8389 0.7299 -1.4633 1.5062 -1.5310 0.7503 0.9538 2.9700 -1.7390 -1.3419 -0.0996 3.1583 2.6897 -2.0478 0.6080 -1.4638 -3.6990 0.9154 -3.7146 2.5993 -1.6438 -2.7903
-6.2810 0.1448 -4.6636 -5.7459 2.4381 -5.4424 5.9042 -5.1863 3.0276 3.9915 -0.9068 -3.0557 5.1271 -2.7529 -2.8246 2.9532 -2.8181 -2.9034 0.0593 -2.2362 1.1734 -0.2234 0.3256 -1.2606 4.9768 -1.6412 -0.2890 5.2044 -4.4283 4.0493 3.7477 -4.3304 3.6704 3.4809 -3.0103 2.9901 2.6479 -3.2559 1.7569 0.2912 2.1119 1.5293 1.0017 -0.1113 1.0936 2.7177 -2.1512 -0.4002 -1.9780 1.4933 -0.2590 -2.3703 4.1351 4.1925 -2.2331 4.5519 2.8089 -1.6354 3.1132 4.6666 -1.3736 3.9116 1.9974 -0.7130 2.4152 3.7892 -4.1505 2.0679 -0.9498 -2.6314 1.1853 -2.6081 -5.1876 2.1080 -1.9663 -3.5910 1.2146 -3.5498 -6.0123 1.5694 -4.2367 2.4563 -1.9623 1.0053 -0.1831 0.7241 1.1297 1.0281 -1.4889 1.1039 -0.7759 0.7992 -0.2720 3.9726 -1.9389 -0.9309 -0.6113 2.7799 2.4988 -2.9319 1.5719 -1.2380 -4.9353 1.6640 -3.2125 4.0034 -2.1061 -2.4206
-6.5775 3.5020 -4.1164 -6.6012 1.1530 -4.8887 5.3738 -5.3214 5.3053 4.0839 -0.9547 -3.3026 5.4524 -2.5954 -2.8776 3.3112 -2.9675 -2.9848 0.3001 -2.4669 1.0092 -0.2656 0.0474 -1.2788 5.0950 -1.2963 -0.4633 4.7015 -4.1060 4.8792 4.1300 -4.3328 3.5004 3.7383 -3.0228 2.8597 2.9823 -3.2946 1.5799 0.2862 1.9182 1.4302 1.0781 -0.2737 1.0376 2.9332 -2.1219 -0.5456 -2.1264 0.9565 -0.2031 -2.6276 4.0553 3.7084 -1.8466 2.9959 4.3228 -2.4106 4.3995 2.4266 -0.9168 2.3420 3.6039 -1.4011 3.7013 1.6547 -2.7826 0.7861 -2.5087 -4.1956 1.9639 -0.9468 -3.7106 1.1342 -3.5677 -5.0763 2.2570 -1.9239 -5.7289 2.2853 -4.4033 2.6721 -1.9991 0.8680 -0.1513 0.4994 1.1014 1.2080 -1.6444 0.9809 -0.8188 0.4834 -0.2722 4.1529 -1.7794 -1.0863 -0.7108 2.6892 2.2088 -2.9767 1.2232 -1.2497 -4.8145 1.8600 -3.3030 4.2403 -2.0758 -2.5541
-6.0446 -0.3741 -4.4626 -5.7482 1.9909 -5.1472 1.7852 -3.9413 5.0871 5.5917 -1.0820 -3.3182 3.4600 -1.5209 -3.3168 4.1538 0.5128 -2.9442 0.8014 -2.4270 0.9674 -0.0115 -0.0249 -1.2114 5.5288 -0.8613 -0.5756 1.3730 -3.8710 3.6973 2.4439 -4.4971 2.8360 3.5090 -3.4800 2.4961 3.5102 -3.2390 1.0074 0.4518 1.8714 1.6166 1.4456 -0.2007 1.0718 3.3228 -1.5618 -0.7189 -1.7124 1.1743 -0.1619 -2.4591 3.4088 4.3362 -2.1785 4.0730 3.0765 -1.7720 2.3076 4.6883 -1.2370 3.5801 2.2537 -0.7563 1.7728 3.8001 -3.9771 1.4973 -0.7161 -2.4314 0.9560 -2.4930 -5.0514 1.4976 -1.6944 -3.4255 0.9381 -3.3977 -5.8961 1.0489 -3.9768 3.1302 -1.8113 0.6900 0.1571 0.4534 1.1614 1.6587 -1.5529 0.9220 -0.5073 0.4861 -0.2111 4.5052 -1.0657 -1.2217 -0.5204 2.3704 2.6184 -2.7231 1.1722 -1.0842 -4.7983 1.1927 -2.9816 4.4220 -0.7934 -2.6929
-4.9333 3.2427 -5.2725 -6.4937 1.4283 -4.6062 7.0310 -4.3369 1.8039 1.5128 -4.3357 -1.5342 0.9655 -2.4558 -2.4911 2.9623 -3.2802 -2.7689 0.1780 -1.8159 2.7494 0.0879 -0.0102 -0.9571 3.1369 -1.2942 -0.8145 6.3718 -4.4313 3.0947 4.8761 -4.4300 2.8859 4.3283 -3.0231 2.9456 2.8186 -3.0555 2.8541 0.6840 2.1832 1.4641 1.1730 -0.1309 1.4927 2.0998 -2.8626 0.5338 -1.7468 1.2076 -0.1858 -2.0935 5.0002 3.0709 -1.4936 3.9914 3.9265 -1.7522 5.0773 1.7725 -0.6042 3.1200 3.4180 -0.7876 4.1438 1.2254 -2.3358 0.5536 -2.4206 -3.7021 2.1584 -1.2409 -3.1936 0.7138 -3.5789 -4.5075 2.3008 -2.3119 -5.0472 1.8264 -4.7629 2.3620 -2.1389 1.7495 0.0755 0.7992 1.3303 1.1011 -1.3783 2.0747 -0.4914 0.6176 -0.0745 2.4742 -2.3204 -0.6771 -0.2611 3.1856 2.0080 -2.5429 1.2763 -1.3032 -4.2282 1.5743 -3.5455 1.9759 -3.1006 -1.8539
-4.9207 2.7864 -4.5599 -4.8414 0.4141 -5.2931 6.4648 -5.3014 1.6993 0.6586 -1.5086 -2.9069 2.1648 -2.9799 -3.4545 0.3773 -3.6111 -2.3864 -0.1403 -2.0399 2.7086 -2.4954 1.0170 1.5675 3.2615 -2.3177 -1.1731 6.0792 -4.1410 2.4842 4.5852 -4.1691 2.7312 3.8450 -3.4640 1.6153 2.3630 -3.3244 1.9089 0.5951 2.2155 2.0106 0.8150 -0.0874 1.9008 1.2287 -2.3362 -0.0684 -0.9441 0.6828 -0.1382 -1.4178 5.7016 3.3682 -1.4018 4.5091 4.1966 -0.7792 5.7186 2.1849 -0.7389 3.4154 3.7837 -0.0851 4.5342 1.7274 -1.0828 1.0501 -2.4502 -3.1443 0.6968 -1.2350 -1.8644 1.2702 -3.6521 -3.8723 0.9274 -2.3426 -4.0318 1.5873 -4.7955 1.7949 -2.0880 1.2406 -0.1749 0.9264 2.1526 0.6978 -1.4438 2.0468 -1.3386 0.8799 1.1712 2.0346 -2.3946 -1.1853 -0.0869 3.4276 2.4876 -1.6940 0.8229 -1.2732 -3.2098 1.2441 -3.6024 1.2991 -2.6203 -2.4693
-5.1439 2.6287 -4.9439 -5.3660 0.1844 -5.3093 6.6675 -4.6778 1.4455 1.2660 -2.2407 -3.2250 2.6048 -3.9200 -2.8597 0.6133 -3.9085 -1.9775 -0.2413 -1.7813 2.5293 -2.7085 1.0699 1.3739 3.4164 -2.0115 -1.0958 6.0802 -4.0234 2.6021 4.5740 -4.1639 2.5508 3.9475 -2.9220 1.9550 2.4375 -2.9302 2.1021 0.2757 2.4897 1.5398 0.6569 0.1576 1.6120 1.3805 -2.3207 -0.0294 -1.2120 0.7525 -0.3883 -0.7373 5.5546 4.3169 -1.3117 5.5233 2.9848 0.1312 4.6040 4.7059 -0.9770 4.5381 2.1356 0.5015 3.5425 3.7876 -1.4141 0.8619 -2.7190 -3.4467 0.7973 -1.4125 -2.2235 0.9959 -3.9152 -4.1991 0.9347 -2.5186 -4.4053 1.3141 -5.0255 1.8243 -1.8347 1.2549 -0.3643 1.1518 1.8405 0.6166 -1.1884 1.8885 -1.5661 0.9805 0.9279 2.2569 -2.4193 -1.0886 -0.0499 3.5063 2.5614 -1.9951 0.8130 -1.5063 -3.5648 1.0617 -3.8242 1.6760 -3.1193 -2.2759
-4.4684 -0.3335 -5.6181 -4.5450 2.1434 -5.7813 7.0622 -4.0375 2.1722 0.2857 -3.0651 -2.5853 1.4026 -1.3578 -3.3516 2.2371 -3.3662 -3.5014 -0.2023 -1.9987 2.4204 -2.6690 1.0597 1.5202 3.4301 -2.2069 -1.2761 5.8590 -3.6668 2.8930 4.6783 -3.8112 1.9644 3.5340 -2.9789 2.4865 2.2575 -3.3109 1.7526 0.3964 2.2679 1.8050 0.5983 -0.0791 1.3733 1.3365 -2.4083 -0.3071 -1.2646 1.0003 -0.3446 -0.6818 5.1044 4.8192 -0.6694 5.4691 3.4139 -0.3294 3.8626 5.1961 -0.3313 4.5576 2.4842 0.0536 2.8843 4.1957 -3.4452 1.3535 -1.2808 -1.5598 0.8718 -2.7186 -4.3027 1.3376 -2.4497 -2.3510 0.8750 -3.8067 -4.6687 0.9563 -4.8586 1.7739 -2.0807 1.0249 -0.3091 0.9258 1.8761 0.6043 -1.4169 1.7056 -1.5539 0.9802 1.0088 2.2146 -2.3581 -1.3685 0.0163 3.2054 2.8902 -2.1322 1.0814 -1.3973 -3.7879 1.0764 -3.6659 1.5316 -2.5360 -2.6907
-5.6362 2.9636 -4.2621 -5.2612 0.8515 -5.5078 5.9021 -3.5692 4.7031 0.7150 -1.6086 -3.4213 2.4290 -2.7121 -4.1856 1.0150 -3.6973 -2.8563 0.8992 -2.0388 2.3466 -2.4257 0.2989 1.1865 3.6551 -1.7148 -2.0709 4.4575 -3.7056 4.6417 4.0429 -3.9385 3.2092 3.9455 -2.6433 2.4316 3.3016 -2.9441 1.0963 0.3601 2.1036 1.6498 0.9845 -0.0981 1.0680 1.8472 -2.1881 -0.7054 -1.0162 0.6324 -0.6386 -1.3346 4.2807 4.8956 -0.2326 3.3633 5.1273 -1.8230 4.4564 3.6551 0.3016 2.6811 4.0987 -1.2505 3.7222 2.5458 -1.4051 1.4856 -2.7946 -3.2757 0.5445 -1.5870 -2.3145 1.8241 -3.8746 -4.1233 0.8735 -2.5779 -4.5973 2.0100 -4.8040 2.4942 -1.7971 0.5343 -0.1032 0.6658 1.6149 1.3633 -1.3666 1.4347 -1.3152 0.5257 0.7089 2.4934 -2.0851 -1.9184 -0.2461 2.8576 2.7650 -1.8733 0.9263 -1.6634 -3.6310 1.5643 -3.7629 1.6575 -2.5239 -3.0824
-4.2015 -1.6548 -5.1099 -4.1813 0.6309 -6.0851 6.0193 -3.9045 0.1544 1.4472 -3.8184 -2.5132 0.1154 -2.0945 -2.5983 2.0815 -1.9963 -3.5269 -0.5862 -1.4717 2.3895 -2.8130 1.6695 1.3833 3.2043 -1.6746 -1.0783 5.4461 -4.3234 1.4213 3.9425 -4.1941 1.3518 3.5025 -2.8652 1.9223 1.9919 -2.7858 1.9736 0.1664 2.8427 1.7591 0.4904 0.4690 1.6824 1.1044 -1.9432 -0.1312 -1.2975 1.2638 -0.3421 0.4028 5.0772 5.3899 -0.7788 5.1438 4.5491 1.4361 4.2899 5.0420 -0.8404 4.4224 3.4161 1.3742 3.5139 3.8169 -3.4471 1.1076 -1.3963 -1.4396 0.5947 -2.6421 -4.2293 0.7408 -2.5602 -2.1628 0.2523 -3.7240 -4.4107 -0.1850 -4.8369 1.5197 -1.5793 1.1984 -0.4979 1.4910 1.9329 0.3398 -0.8921 1.8360 -1.6740 1.4433 0.9772 2.0150 -1.9679 -1.1670 0.2738 3.5678 3.0458 -2.1059 0.9942 -1.4125 -3.6186 0.2999 -3.6756 1.4113 -2.4641 -2.4428
-4.4378 -0.7866 -5.5494 -4.3525 1.6345 -6.0935 6.0658 -2.1620 3.6937 0.5362 -3.4240 -2.9759 0.4183 -1.3416 -3.6081 2.1292 -2.5585 -4.1802 -0.1647 -1.9610 1.9614 -2.7222 1.1922 1.3969 3.1486 -1.4405 -1.9435 5.2611 -3.3663 3.5846 4.5705 -3.3935 2.2418 3.2459 -2.6747 2.3162 2.3886 -3.0281 1.1245 0.2176 2.4010 1.8999 0.6319 0.1205 1.2796 1.2371 -2.0456 -0.7841 -1.2824 1.1264 -0.4369 0.2350 3.8655 5.9188 1.1571 2.8249 5.5008 -0.6274 4.3941 5.0324 1.1470 2.3866 4.2299 -0.6484 3.9134 3.6627 -3.4696 1.2266 -1.4217 -1.5221 0.8791 -2.8116 -4.3002 1.1060 -2.6050 -2.2894 0.7648 -3.9109 -4.5810 0.6145 -5.0058 1.7781 -1.7825 0.5263 -0.3774 1.0078 1.8081 0.6236 -1.2571 1.3432 -1.5979 1.0823 0.9097 1.9994 -1.8721 -1.9200 0.1868 2.9294 3.2849 -2.1351 1.0700 -1.5056 -3.7405 0.8519 -3.8023 1.2710 -2.2975 -3.1611
-5.7770 0.5525 -5.2492 -5.7380 3.0348 -5.3041 7.5250 -2.7249 1.8774 3.7476 -2.9275 -1.6045 2.6344 -4.5844 -2.4778 1.5657 -2.8693 -1.6814 0.0454 -2.1323 0.9145 -0.0700 0.7170 -1.4491 2.7228 -5.5640 0.0176 6.9389 -1.6111 2.6011 5.5033 -1.9441 2.9239 4.5795 -1.2369 1.9614 3.1546 -1.6493 2.2419 0.4687 2.1169 1.4870 1.1315 -0.0928 0.7891 2.3277 -3.5112 0.9485 -1.9489 1.4717 -0.2892 -2.2530 4.0733 4.1611 -1.5862 2.8444 4.5496 -1.9981 4.6275 2.9627 -0.7247 2.2468 3.7067 -1.0748 3.9789 2.0477 -4.1857 1.7733 -0.9782 -2.4822 1.6053 -2.6826 -5.1795 1.8893 -2.0319 -3.3982 1.7073 -3.6609 -5.8198 1.8150 -4.4198 2.4738 -2.0685 0.9566 -0.0226 0.7743 0.9672 1.0783 -1.4684 0.9102 -0.6587 0.9685 -0.4010 2.5789 -4.3489 -0.1122 -0.4898 2.8147 2.3880 -2.8879 1.5791 -1.2841 -4.8106 1.8260 -3.3260 2.6295 -3.6831 -1.4602
-5.3414 4.1295 -4.3214 -6.5395 1.9827 -4.6837 5.2077 -0.4828 4.7141 2.4749 -4.3962 -2.4353 2.8011 -2.4305 -3.3234 4.4816 -3.7772 -3.0028 0.2446 -2.6479 1.8655 -0.1947 -0.3459 -1.1495 4.6285 -2.2271 -0.7904 5.7956 -1.4451 3.7986 4.8094 -1.7650 2.6982 4.0030 -2.9896 3.0694 3.0340 -3.4702 2.0108 0.3196 1.6466 1.4820 1.0609 -0.5688 1.2203 2.4624 -2.8546 -0.2684 -2.0742 0.6277 -0.1699 -2.5887 4.0012 3.5358 -2.3593 2.6248 3.9361 -1.8489 4.5549 2.5591 -1.4072 1.8983 3.3251 -0.8429 3.7625 1.8806 -2.4490 0.8530 -2.5328 -4.1007 1.6704 -0.9733 -3.2627 1.3616 -3.6201 -4.8624 2.1389 -1.9814 -5.1968 2.6337 -4.4643 2.5255 -2.3872 1.0926 -0.1435 0.2312 1.2060 1.1366 -1.9242 1.4427 -0.7667 0.1516 -0.1823 3.5558 -2.7403 -1.0994 -0.6479 2.4798 2.2305 -2.8217 1.0291 -1.2509 -4.4139 2.0099 -3.3630 3.3207 -3.3347 -2.4550
-5.8408 2.8363 -4.0004 -5.3052 0.8870 -5.4393 2.9791 -1.4014 5.1177 3.6234 -3.9886 -3.4747 1.5667 -3.2940 -3.2475 2.9643 -2.1767 -4.4911 0.7262 -2.4007 1.1254 -2.4352 -0.1017 1.1946 4.3117 -1.3497 -2.2539 3.3101 -2.6120 4.3868 4.4296 -2.3455 3.4060 4.0262 -1.3545 2.3339 3.8043 -2.0785 1.0268 0.1104 1.8812 1.9288 1.0601 -0.1009 1.0671 2.5377 -2.2272 -1.0438 -1.0624 0.5270 -0.5776 -1.9979 3.4293 5.2947 -0.8227 2.5983 5.4874 -2.4225 3.7265 4.0538 -0.1570 2.1155 4.4230 -1.7089 3.2076 2.9053 -1.5142 1.5417 -2.6445 -3.3110 0.3534 -1.5476 -2.4437 1.9138 -3.6949 -4.1789 0.7133 -2.5106 -4.7319 2.0207 -4.6233 2.7378 -1.4479 0.1573 -0.1469 0.4128 1.6684 1.3919 -1.4134 0.8398 -1.3473 0.2570 0.7475 3.3107 -2.0559 -2.1702 -0.6407 2.4129 3.0853 -1.9410 0.8444 -1.5758 -3.7377 1.5489 -3.6205 2.8555 -2.8788 -3.3338
-4.9456 3.8254 -4.0808 -4.9193 1.6598 -5.2940 6.8198 -2.3759 4.0354 0.4438 -2.7410 -3.1599 2.3748 -3.4092 -3.9186 1.3518 -4.5664 -2.3865 0.6590 -2.4802 2.3972 -2.4659 0.0868 1.4454 3.2922 -1.7849 -1.9762 5.7367 -3.3350 4.1630 5.1615 -3.6180 2.7978 4.0277 -2.6692 2.4925 3.2218 -3.2204 1.3410 0.3874 1.7309 2.2802 0.9231 -0.4127 1.3640 1.7378 -2.6576 -0.4950 -0.9858 0.6215 -0.2765 -2.5409 4.7254 3.1365 -2.0725 3.8302 4.1808 -2.0327 4.6405 1.8943 -1.1425 2.8988 3.9035 -1.0194 3.6467 1.5990 -1.1901 1.2806 -2.5114 -3.1969 1.2537 -1.1576 -1.9730 1.8107 -3.6111 -3.9294 1.7206 -2.1853 -4.0877 2.6721 -4.5446 2.3620 -2.1531 0.7059 -0.1467 0.3404 1.9812 1.2152 -1.7386 1.5956 -1.3369 0.3403 1.0304 2.3205 -2.4944 -1.7345 -0.6197 2.7861 2.5535 -1.7660 1.0376 -1.3185 -3.2890 2.0483 -3.4548 1.6246 -3.2996 -2.7919
-5.9202 -2.8563 -3.4520 -6.3645 -0.7749 -4.7350 0.9366 -4.7475 -2.9300 5.6111 -0.8419 2.5961 5.5741 -2.8427 3.4608 6.5126 -2.5085 1.5245 0.4623 -1.0159 2.6783 -2.5407 1.5284 1.4914 3.9833 -3.5623 1.0589 1.5180 -3.5180 -3.4398 2.3073 -2.8513 -2.3399 1.4135 -1.9774 -1.4923 2.2647 -1.1815 -0.5343 0.4110 2.6811 0.4349 0.6037 0.3505 0.8181 3.2240 -1.4668 1.6684 -1.6923 0.8176 -0.5647 -0.1741 6.4133 2.4170 0.8440 5.4854 2.8772 -0.9350 6.1084 1.3508 1.0238 4.3143 2.2411 -0.7444 4.8447 0.6661 -4.0605 0.5062 -0.7619 -2.5832 -0.2476 -2.5242 -5.1775 -0.0513 -1.4972 -3.6198 -0.7618 -3.2119 -6.0918 -1.3588 -3.3717 2.0013 -1.5780 0.9077 -0.1690 1.5042 1.1942 0.9671 -0.7126 1.6019 -1.6003 1.2659 0.7438 4.1594 -2.4773 1.6103 0.1782 3.9748 1.1110 -2.8050 0.3805 -1.2295 -4.9696 -0.6875 -2.6649 5.4521 -2.1555 2.2966
-6.1413 3.9946 -4.0627 -6.9470 1.6997 -4.5899 5.9647 -1.8039 4.8078 5.1277 -4.3435 -1.8210 3.3361 -4.0917 -3.0477 5.1522 -2.9870 -3.5242 0.7715 -2.3812 0.0508 -0.0775 0.4798 -1.5200 3.9874 -1.1338 -2.0198 4.7098 -1.1402 5.1143 3.5867 -1.8672 4.4148 3.2663 -1.2341 3.0789 3.3515 -2.3002 2.0071 0.1310 1.6899 1.5798 1.2741 -0.2026 0.6772 3.4939 -2.7090 -0.3854 -2.0833 0.7715 -0.3714 -3.0353 2.6015 4.3160 -1.9542 1.7148 4.7084 -3.0337 3.1644 3.0949 -0.9586 1.4390 3.8458 -1.9486 2.8878 2.1727 -2.6316 1.1086 -2.6938 -4.2972 1.5333 -1.0015 -3.5800 1.5619 -3.6957 -5.1839 1.9432 -1.9312 -5.7362 2.5682 -4.3508 3.0542 -1.7664 0.6226 -0.0577 0.3453 0.8943 1.5687 -1.5281 0.4255 -0.7123 0.5511 -0.4701 3.9385 -2.2961 -1.6258 -0.9718 2.0290 2.5164 -2.9460 1.1336 -1.3836 -4.8025 1.9984 -3.3379 4.3841 -3.4308 -2.4947
-7.1412 0.3296 -4.6537 -8.4176 1.2389 -2.7273 2.5127 -6.1080 -0.9364 6.1557 -1.3843 3.8260 4.9485 0.0599 4.9358 5.1219 -1.9915 5.6425 1.4430 0.2836 2.3697 -1.2790 -1.2392 -1.0247 2.8879 -2.2881 4.2434 3.1720 -5.1437 -1.7998 3.7810 -4.0428 -0.9619 2.7381 -3.0477 -0.5071 3.4042 -1.8524 0.1419 0.7640 1.3850 -1.2127 0.9285 -0.5221 0.2741 3.7836 -1.1447 2.4362 -2.2403 0.8682 -0.7384 -0.0250 5.5805 -0.7963 -0.6597 4.7952 -1.8384 0.8294 4.9931 0.0604 -0.3856 3.4835 -1.9535 1.1233 3.5748 -0.0600 -4.0141 -0.5479 -1.5104 -4.3173 1.8477 -1.4967 -5.3218 -0.6823 -2.1179 -5.5317 1.7253 -2.0680 -7.3390 0.2740 -3.1576 2.7642 -1.5503 1.4837 0.0657 0.5656 -0.1435 1.6830 -0.4718 1.4291 -1.2021 -0.0566 -0.7005 3.7854 -1.6208 3.7336 0.5308 2.8441 -1.0225 -3.4981 0.6682 -1.2512 -6.0515 0.4085 -2.4193 5.0011 -1.2311 4.5213
-4.6793 2.3498 -5.3561 -5.9276 0.3057 -4.7419 6.3422 -3.1874 -1.1100 -0.0702 -2.9261 -0.3272 1.5331 -4.0782 -1.2662 -0.2771 -5.0738 -0.5720 -0.0690 -1.5049 2.5023 -2.3564 1.3452 1.3661 1.2575 -5.5042 1.5325 6.6055 -2.1827 -0.0937 5.5372 -2.2593 0.9733 4.2873 -1.5506 0.5018 3.2889 -1.4282 1.6276 0.7129 2.5608 1.1195 0.9265 0.1967 1.2942 1.7635 -3.2860 1.7252 -1.0793 0.7035 -0.4813 -0.2345 6.0688 3.3565 -0.7316 5.8787 2.0072 0.5337 5.1291 3.9354 -0.4300 4.7544 1.3358 0.8731 3.9200 3.2067 -1.4789 0.4157 -2.7626 -3.3660 0.9457 -1.3519 -2.3658 0.4337 -3.9079 -4.1865 0.9870 -2.4167 -4.5553 0.9037 -4.9401 1.9353 -1.9526 1.1951 0.0265 1.2913 1.5784 0.8280 -1.0876 1.7768 -1.2786 1.1164 0.8213 1.2456 -4.3660 1.0631 0.3860 3.7316 1.9663 -1.9456 0.6993 -1.5336 -3.6659 0.7464 -3.7562 0.6148 -4.0960 -0.2675
-6.0768 1.9063 -5.4023 -7.8522 1.8877 -3.6678 6.0328 -1.9547 -1.8857 3.1767 -4.6739 0.6672 4.9242 -3.7909 1.6373 4.2785 -5.7974 2.1687 -0.1476 -1.8266 1.9488 -0.9191 -0.6106 -1.2641 2.9850 -4.4928 4.0763 6.2272 -0.8647 -0.9452 5.5375 -1.1919 0.3592 4.0534 -0.9272 0.2542 3.3729 -1.1174 1.5922 0.6619 1.9987 0.0868 0.9040 -0.2906 0.5907 2.1470 -2.9564 2.6146 -2.2525 1.1212 -0.4551 -0.9935 5.5855 1.7015 -0.1999 4.7052 2.5409 -1.1879 5.2902 0.4041 0.3342 3.5833 2.0251 -0.6055 4.0876 -0.1552 -3.5790 0.0303 -2.1318 -4.2413 2.2006 -1.3074 -4.6941 0.0715 -3.0565 -5.2766 2.2428 -2.1689 -6.5712 1.2433 -4.1388 2.2175 -2.0940 1.4538 -0.0881 0.7640 0.5462 0.8693 -1.3874 1.4173 -1.1015 0.3440 -0.5114 2.9632 -4.0033 2.9466 0.0989 3.2547 0.6295 -3.3195 1.0725 -1.3194 -5.5034 1.1465 -3.1037 3.8256 -4.5560 1.8522
-5.8348 3.6026 -4.9958 -7.5411 1.9674 -4.2452 5.9470 -0.3511 5.4081 3.5673 -5.0715 -1.7944 3.5279 -3.5636 -3.3711 5.4309 -4.3088 -2.6194 0.4310 -2.2680 0.2766 -0.3814 0.4058 -1.6986 5.2069 -2.1598 -1.0275 4.7010 -0.8033 4.8149 4.8425 -0.7892 3.3104 3.4810 -0.7747 2.6536 3.2746 -2.0042 1.7929 -0.1073 1.9560 1.2374 1.0276 -0.0400 0.5365 3.0178 -2.7246 -0.5262 -2.3334 0.8823 -0.5105 -1.9383 2.5320 5.0607 -2.6927 2.7190 3.8347 -0.6456 2.1639 5.0085 -2.0974 2.5312 2.6438 -0.0014 1.9597 3.7227 -2.9868 0.8424 -2.8191 -4.5246 1.6785 -1.1556 -3.9617 1.1597 -3.8427 -5.4323 1.9763 -2.1062 -6.0829 2.1739 -4.5747 2.7742 -1.6429 0.4067 -0.2904 0.5434 0.7135 1.2795 -1.3930 0.4153 -0.9744 0.6152 -0.6432 4.2074 -2.8490 -1.2134 -0.7046 2.1203 2.5870 -3.2270 1.1277 -1.5252 -5.1356 1.7306 -3.5132 4.1772 -3.9441 -2.2415
-6.8021 2.3218 -4.6732 -6.6594 -0.1159 -4.2766 6.1951 -3.5450 0.3475 3.1963 -5.3808 1.7542 1.8939 -5.8537 0.0695 4.0565 -5.8532 -0.1884 0.2534 -1.6653 1.1534 0.0308 1.1230 -1.5530 3.2264 -3.4063 -1.1423 6.8380 -2.3412 0.8392 5.9435 -1.6728 1.8555 4.9840 -0.7188 1.1806 3.6146 -0.8377 1.8160 0.4656 2.5817 1.3689 1.1967 0.4020 0.7300 2.6309 -2.9141 1.0377 -1.9147 1.7944 -0.4632 -2.5739 4.7875 3.4193 -1.9236 3.6590 4.0617 -2.2022 5.1667 2.1839 -0.9602 2.9773 3.4154 -1.1583 4.4371 1.4894 -4.1865 1.7036 -1.0806 -2.5301 1.6054 -2.8361 -5.2182 1.5522 -2.0918 -3.4823 1.4416 -3.7730 -5.8646 1.1524 -4.4858 2.6530 -1.4847 0.8441 0.0061 1.2222 0.8684 1.2380 -0.9543 0.9739 -0.6007 1.3511 -0.5243 2.9812 -3.7603 0.0086 -0.5875 3.3633 2.0647 -2.8850 1.6714 -1.4245 -4.8855 1.3917 -3.3879 3.0311 -5.2012 0.4189
-5.7365 1.1825 -5.5561 -6.2376 -0.9832 -4.4640 6.3907 -1.2757 0.3675 1.5202 -3.7270 -1.3726 3.6238 -3.5330 -0.8177 2.7065 -5.5003 -0.9544 -0.6855 -1.5425 1.7839 -2.8520 1.7799 1.0851 2.3205 -5.1063 1.6533 5.7667 -0.6128 -0.7638 4.6002 0.2013 -0.2602 3.3104 -0.5474 -0.4888 2.7374 -0.9817 0.8390 0.1263 2.7328 1.3284 0.3980 0.3666 1.0506 1.5039 -3.0028 1.3199 -1.5358 1.0475 -0.6965 0.7371 4.7319 5.0528 -0.5083 4.8804 4.3212 1.7080 3.9342 4.5734 -0.6895 4.2307 3.1581 1.5186 3.2376 3.3144 -3.7387 1.2388 -1.5962 -1.9849 0.1911 -2.8967 -4.6650 0.9631 -2.6703 -2.8442 -0.0611 -3.9018 -5.1394 -0.0436 -4.9062 1.4399 -1.7366 0.6220 -0.5346 1.3781 1.4815 0.2710 -0.9906 1.2466 -1.7797 1.3964 0.6204 2.1088 -4.1578 0.8975 0.3622 3.3734 2.6422 -2.4585 0.8348 -1.6801 -4.2439 0.3222 -3.7770 2.4838 -4.2207 -0.5554
-5.1301 3.7724 -5.1075 -7.1390 2.9225 -3.9688 6.5596 0.0366 3.8955 3.1337 -5.4854 -1.5624 3.2408 -4.0069 -3.1649 5.0649 -4.8914 -2.3703 0.2706 -2.4539 0.5583 -0.1659 0.4691 -1.4534 5.0014 -2.6902 -0.8571 5.4460 -0.6333 4.5452 4.9363 -1.7597 3.6718 3.9990 -1.2508 2.5966 3.1764 -2.3832 2.0151 0.1381 1.8031 1.4939 1.0566 -0.2906 0.8385 2.8020 -3.1272 -0.2823 -2.1919 0.7974 -0.3353 -2.8743 3.5101 3.9973 -2.4244 4.1790 2.7906 -2.3251 2.3388 4.3656 -1.4641 3.6218 2.0331 -1.2818 1.7398 3.5522 -2.6875 1.1140 -2.6644 -4.3992 1.5296 -1.0179 -3.6125 1.5453 -3.6930 -5.2528 1.9505 -1.9730 -5.7411 2.5699 -4.4218 2.6601 -2.0201 0.6357 -0.2018 0.4225 0.9644 1.1914 -1.6542 0.6844 -0.8206 0.5680 -0.4187 3.9567 -3.3178 -1.0100 -0.8878 2.3452 2.4173 -3.0384 1.1377 -1.3649 -4.8351 2.0116 -3.3701 3.8399 -4.4203 -2.0195
-6.1957 0.7965 -4.9970 -5.9241 3.2617 -4.9539 3.8833 -0.6923 6.0323 4.0419 -4.3430 -2.3579 4.1724 -2.8695 -3.9613 5.9795 -3.5486 -2.9511 0.8662 -2.2047 0.2263 -0.0838 1.7031 -1.2300 5.4021 -1.2136 -1.6524 3.8768 -0.1836 4.6730 3.9198 -1.3604 3.7311 4.1364 -0.8813 2.3175 3.7010 -1.9589 1.3528 0.0190 1.4408 2.0116 1.2491 0.0762 0.4419 3.3691 -2.1544 -1.0514 -2.0984 1.0780 -0.2259 -3.2757 1.1741 4.7401 -2.2447 0.1520 4.7203 -3.2020 2.2209 3.8992 -1.2171 0.2460 3.8570 -2.0901 2.3263 2.9714 -4.3542 1.2835 -0.8166 -2.6952 1.7568 -2.5112 -5.3886 1.5317 -1.8022 -3.6526 1.9869 -3.4270 -6.1013 2.0186 -4.1152 3.1195 -1.3306 0.1071 -0.0802 0.4656 0.8523 1.6215 -1.2389 0.2556 -0.7204 1.1525 -0.3376 4.5476 -2.0885 -1.7634 -1.1478 1.3661 2.9329 -3.0545 1.3815 -1.1529 -5.0584 1.8595 -3.0657 4.6798 -3.2102 -2.7497
-5.7754 0.8956 -5.3941 -6.2740 3.2654 -4.8641 6.2706 -1.9398 3.9086 2.9324 -5.0730 -2.2137 5.0503 -4.7140 -2.5678 4.3668 -5.2858 -0.5824 0.5710 -1.8749 -0.4681 -0.2101 1.3136 -1.4593 4.3843 -2.1894 -2.0018 5.9815 -0.5326 3.6957 4.4892 -0.3583 3.5457 4.1058 -0.3479 2.0842 3.2169 -1.5348 1.7837 0.1039 1.8807 1.7516 1.1601 0.1288 0.5199 3.0639 -2.8789 -0.2283 -2.1874 1.3104 -0.2208 -2.9425 2.6399 4.6554 -2.7935 3.4823 3.4830 -2.1071 1.6045 4.8536 -1.8218 3.2243 2.5905 -1.0588 1.3226 3.8884 -4.4412 1.2293 -0.9195 -2.7994 2.0811 -2.4717 -5.4521 1.3921 -1.9523 -3.7275 2.2127 -3.4359 -6.0980 1.8787 -4.2932 2.8477 -1.5553 0.3163 -0.1441 0.6662 0.8727 1.3925 -1.1684 0.1088 -0.8242 1.1200 -0.4134 3.8684 -3.0798 -1.3312 -0.9407 2.0849 2.7865 -3.1481 1.5010 -1.1822 -5.1097 1.8306 -3.1792 4.0501 -4.5321 -1.6657
-5.9519 3.7528 -4.3110 -7.3785 1.7452 -4.0175 2.7475 -0.4453 5.7026 3.9183 -4.6845 -2.0053 4.4965 -3.3472 -3.6286 6.0220 -4.2571 -2.3675 1.1251 -2.3105 0.4991 -0.0674 0.7618 -1.5966 5.6791 -1.7109 -1.3899 2.7219 -0.2758 4.2617 4.1317 -0.3838 3.7316 4.1426 -0.1366 2.2406 4.0458 -1.4573 1.5100 0.0524 1.6247 1.6311 1.3687 -0.0045 0.4791 3.6072 -2.4484 -0.6657 -2.0715 0.6646 -0.4090 -3.1615 1.8211 4.4501 -2.0488 0.9132 4.6660 -3.1752 2.6271 3.3739 -1.0345 0.8667 3.7831 -2.0788 2.5829 2.4253 -2.7012 1.0507 -2.6959 -4.3655 1.2070 -0.9551 -3.7124 1.4383 -3.6599 -5.3051 1.5757 -1.8483 -5.9701 2.2450 -4.2300 3.3187 -1.3174 0.1889 0.0002 0.3633 0.7889 1.8218 -1.3054 0.4105 -0.6872 0.6398 -0.5422 4.7489 -2.5127 -1.4326 -1.0655 1.7169 2.6042 -2.9912 0.9763 -1.3828 -4.9663 1.7223 -3.2595 4.7843 -3.6978 -2.3495
-7.2848 -0.3163 -4.0069 -7.1509 1.9826 -4.9317 7.0763 -3.3428 -0.6594 2.0229 -5.3579 3.2955 4.0832 -5.8386 2.7821 3.6491 -4.0690 3.9728 0.2218 -1.2702 1.8503 -0.7145 0.2418 -2.0730 3.5021 -4.4164 0.5841 6.8820 -1.9042 -0.6885 5.9301 -1.5181 0.4185 4.5595 -1.2525 -0.1580 3.5832 -0.8947 0.9398 0.7117 2.3598 -0.0174 0.9345 -0.0457 0.0237 2.4213 -2.8124 1.8616 -2.1700 1.5607 -0.8095 -1.0567 5.4747 2.3359 -0.1900 4.4842 2.9498 -1.2881 5.4383 1.0117 0.3651 3.5150 2.1994 -0.6822 4.3979 0.2010 -4.4824 1.9756 -0.9827 -3.3517 1.0257 -2.8939 -5.7315 1.8882 -1.7206 -4.5063 0.9359 -3.5765 -7.0359 1.1388 -3.6856 2.3658 -1.7901 0.8390 -0.0262 1.0379 0.1084 1.0749 -1.0067 1.0069 -0.9875 0.8761 -1.0579 3.0794 -4.0087 1.6624 0.0824 3.4510 0.7748 -3.3389 1.5114 -1.5222 -5.7555 1.3582 -2.9586 3.2076 -4.8096 2.9245
-4.6554 -1.9701 -4.6340 -5.1792 0.2808 -5.5617 5.1537 -2.6291 -2.8512 3.2550 -5.1650 1.1227 1.2305 -5.2524 1.9389 1.6108 -5.8824 -0.1120 0.2271 -1.1702 2.1306 -2.4776 1.5850 1.4657 0.9320 -3.3704 -0.6240 4.4170 -2.6556 -1.6018 5.1018 -1.7677 -0.5878 4.3100 -0.4909 -0.4023 3.5105 -0.5124 0.8857 0.4478 3.0667 1.2522 0.8983 0.7532 1.0464 2.2825 -2.5971 1.0901 -1.2895 1.4302 -0.5335 -0.5884 6.0882 4.0793 -0.3305 4.7343 4.5367 -0.4587 6.4005 2.7780 0.0369 3.7861 3.6568 -0.0871 5.3742 1.8262 -3.5631 1.0393 -1.1694 -1.7719 0.6353 -2.7452 -4.4991 0.5248 -2.1470 -2.6423 0.1711 -3.6606 -5.0059 -0.5386 -4.3070 2.1844 -1.2160 0.6856 -0.0865 1.6841 1.5488 1.0227 -0.5639 1.4191 -1.4200 1.5212 0.8409 1.6692 -3.5753 0.3372 0.1226 4.1140 2.2433 -2.2435 1.0444 -1.4318 -4.0622 0.0830 -3.3407 1.9478 -4.9592 0.8257
-5.3521 -0.9615 -4.9697 -5.1098 1.3840 -5.7564 6.2296 1.4780 -0.0712 1.8308 -4.0252 -1.5695 3.8920 -3.7638 -0.8898 3.0787 -5.7609 -1.1711 -0.5089 -2.0583 1.8559 -2.7166 1.1080 1.5372 2.5450 -5.5244 1.4206 5.4958 0.3684 -0.6517 4.0360 0.5320 -0.3028 3.2967 -0.7616 -0.5503 2.8431 -1.3773 0.7557 0.4293 2.2123 1.5500 0.4804 -0.1063 1.1112 1.6404 -3.4530 1.1590 -1.4636 1.0507 -0.4341 -0.3248 5.0395 4.6510 0.5150 3.8817 4.8995 -0.8647 5.2374 3.4350 0.7485 2.9979 3.9131 -0.6170 4.2824 2.3725 -3.7208 1.2764 -1.1892 -1.9838 0.6332 -2.7441 -4.6908 1.1369 -2.2558 -2.8807 0.5181 -3.7411 -5.2942 0.4896 -4.5559 1.5458 -2.1449 0.5523 -0.3401 0.9156 1.7073 0.3994 -1.4642 1.2833 -1.6468 1.0053 0.9395 2.3239 -4.5468 0.7058 0.1347 3.1953 2.6124 -2.4265 0.9775 -1.4017 -4.2977 0.7424 -3.4814 2.7737 -4.5142 -0.7254
-4.9514 -0.1017 -4.9378 -3.7747 1.8143 -5.9736 7.4825 -0.0794 0.4052 -0.3442 -2.9108 -1.0103 1.3989 -3.5662 -2.1497 -0.3699 -4.8295 -2.0251 -0.2438 -2.2765 2.0560 -2.2923 0.9183 1.6411 0.8747 -5.8896 0.0616 6.0444 0.0891 0.3095 5.3555 -1.0766 0.9782 3.9187 -1.1399 0.5155 3.1279 -2.0843 1.3910 0.8994 1.9460 1.9705 0.8660 -0.3623 1.3523 1.5902 -3.8631 0.8373 -0.9067 0.9581 -0.2408 -0.7988 5.2949 4.0111 -0.1813 4.2095 4.7534 -0.8369 5.2593 2.6669 0.3393 3.1577 4.0968 -0.2701 4.1259 1.9595 -3.0669 1.4886 -1.1323 -1.2568 0.8717 -2.6132 -3.9370 1.5983 -2.2884 -2.0653 0.9622 -3.6851 -4.3818 1.2771 -4.6995 1.8036 -2.4367 0.7406 0.0653 0.6757 1.9591 0.6877 -1.7227 1.4828 -1.1844 0.8496 1.1123 0.9794 -4.6717 -0.0893 0.2677 3.1033 2.6484 -1.7894 1.0905 -1.2763 -3.4718 1.3104 -3.5196 0.4222 -3.9894 -1.3083
-4.9830 -1.7141 -4.9231 -5.5617 0.6572 -5.3874 4.7488 0.3903 -3.1842 1.7845 -4.1544 -0.2822 3.9567 -4.1610 -0.0585 2.7938 -5.9238 0.4719 -0.0182 -1.3512 2.8181 -2.6185 1.4795 1.5181 3.1832 -4.7320 2.8600 4.0913 -0.8712 -2.8941 4.1801 -1.1304 -1.4095 2.8344 -0.8890 -0.7714 2.9038 -1.1316 0.7201 0.5006 2.5741 1.1708 0.5413 0.1898 1.1906 2.0237 -2.9075 2.1402 -1.4394 1.0201 -0.4467 -0.1379 6.0038 3.6308 -0.5327 5.9962 2.2339 0.4479 4.9220 4.1746 -0.3238 4.9001 1.4842 0.6885 3.7441 3.3619 -3.7347 0.9213 -1.1100 -1.9844 0.3368 -2.6766 -4.7138 0.5621 -2.1141 -2.8930 0.0198 -3.6167 -5.3113 -0.3720 -4.3139 1.6726 -1.9011 1.1642 -0.2346 1.3262 1.6185 0.6631 -1.0040 1.8577 -1.5730 1.2584 0.9110 2.6936 -4.0820 1.9354 0.2920 3.7262 2.0771 -2.4218 0.7711 -1.3593 -4.3163 0.0925 -3.3114 2.7979 -4.5662 0.5198
-5.9230 -0.0230 -4.8209 -5.7835 2.3901 -5.3765 6.8520 -0.8590 -1.0143 1.2008 -4.1436 -0.4744 3.3074 -4.7174 -0.4369 1.7582 -6.2116 -0.1085 -0.0186 -2.0663 1.3415 0.0304 0.5983 -1.5093 2.1780 -5.6047 2.4482 6.6689 -0.0918 0.2056 5.7990 -0.8754 1.1605 4.3415 -0.6735 0.8208 3.4632 -1.3260 1.8614 0.8130 2.1002 1.2983 1.1678 -0.1912 0.7262 2.2083 -3.3626 2.0389 -1.7489 1.5894 -0.3791 -1.7237 4.9275 3.2608 -1.2943 5.1279 1.8892 -1.3106 3.8484 3.9484 -0.4812 4.2326 1.3023 -0.4412 2.8737 3.3132 -4.0221 1.8272 -0.9585 -2.4274 1.4227 -2.7294 -5.0810 1.8000 -1.9536 -3.4060 1.3788 -3.6499 -5.8708 1.3783 -4.2595 2.4059 -2.1952 1.2041 0.1289 0.8048 0.8988 1.0528 -1.4959 1.1483 -0.5144 0.9621 -0.4698 2.1706 -4.6740 1.6423 -0.0661 3.0453 2.0328 -2.7474 1.5834 -1.3179 -4.7947 1.5467 -3.2454 2.1082 -4.9262 0.1622
-5.2817 3.5046 -4.1237 -5.1991 1.3493 -5.3491 7.1440 0.0766 3.2950 1.0569 -5.6609 -1.2035 1.0153 -4.6864 -3.1555 2.8073 -5.7348 -2.4983 0.1476 -2.4993 1.7337 -2.5536 0.3301 1.3469 3.2245 -3.0330 -2.0862 5.8608 0.3540 2.6713 5.4091 -0.8540 1.8761 3.8959 -0.9418 1.8477 3.4105 -2.2371 1.2202 0.3543 1.8500 2.0132 0.8571 -0.3380 1.2846 1.8042 -3.3198 -0.2804 -1.0740 0.5883 -0.4321 -2.1255 4.5663 4.1698 -1.3288 3.5779 4.8747 -2.0788 4.6422 2.8279 -0.5480 2.7269 4.1862 -1.2343 3.7296 2.0832 -1.3211 1.5360 -2.5651 -3.3067 0.7396 -1.4412 -2.1597 1.9845 -3.6614 -4.0885 1.1748 -2.4458 -4.3834 2.4108 -4.6515 2.1412 -2.0845 0.3936 -0.2130 0.4568 1.8370 0.9345 -1.7082 1.2284 -1.4143 0.4592 0.9014 2.3465 -3.6608 -1.4983 -0.5267 2.7913 2.7359 -1.8735 0.9932 -1.4649 -3.4974 1.8470 -3.5961 1.7984 -4.9304 -2.0739
-4.9256 -0.8252 -5.2044 -4.8112 1.5860 -5.8070 6.0353 1.8581 -0.8752 2.8090 -3.8889 -1.6616 1.9323 -5.8765 -1.5486 0.6519 -4.1222 -1.3719 -0.3501 -2.1932 1.5041 -2.5681 0.9418 1.5099 2.3200 -5.7086 1.0362 4.7271 1.8515 -0.2441 4.6012 0.6087 0.6073 3.5380 -0.3005 0.0316 3.1114 -1.3455 1.0417 0.5501 2.1055 1.6922 0.6500 -0.1640 1.0545 1.9491 -3.4601 1.1189 -1.2704 1.0705 -0.4268 -0.3512 4.6471 4.9943 0.5139 3.4945 5.1688 -0.8675 4.9320 3.7859 0.7962 2.7014 4.1204 -0.5696 4.0770 2.6539 -3.5193 1.2151 -1.2229 -1.7123 0.8017 -2.7734 -4.4525 1.0997 -2.3248 -2.5771 0.7078 -3.8006 -4.9652 0.5907 -4.6824 1.8917 -2.1248 0.5590 -0.1960 0.7871 1.7239 0.6163 -1.5308 1.1392 -1.4829 0.9104 0.9328 2.0697 -4.6516 0.4568 0.2072 2.9930 2.8242 -2.2046 1.0125 -1.4216 -4.0105 0.8231 -3.5655 1.8636 -4.6234 -1.0249
-5.3498 3.2464 -5.0898 -6.9624 1.5325 -4.2821 7.0458 1.0790 0.0220 3.1599 -5.3099 -0.5384 1.2550 -6.1795 0.0599 1.3704 -4.0674 -0.4304 0.1609 -2.3492 1.5044 -0.2305 -0.3937 -1.2660 2.5255 -5.7929 2.3838 5.6077 1.2723 -0.0438 4.9654 0.5744 1.1329 4.4543 -0.7837 0.7077 3.6160 -1.4078 1.8002 0.8138 1.8988 0.9014 1.2404 -0.4009 0.9092 2.5066 -3.5350 2.0395 -1.8729 0.9511 -0.3050 -1.4527 4.7914 3.0619 -0.6673 3.8014 3.7772 -1.4485 4.8181 1.7178 0.0597 2.8975 3.0959 -0.6564 3.8562 0.9813 -2.7878 0.2811 -2.4201 -3.7821 2.1202 -1.2135 -3.7272 0.5192 -3.4988 -4.6729 2.3278 -2.2031 -5.5129 1.8397 -4.5664 2.5758 -2.3482 1.2119 0.1465 0.5403 0.9330 1.1906 -1.7219 1.2746 -0.6384 0.3167 -0.3498 2.3667 -4.8330 1.6268 0.0439 2.9197 1.6428 -2.7610 1.0894 -1.3434 -4.6188 1.5244 -3.4187 2.0367 -5.0745 0.1849
-5.9094 -1.0360 -4.5987 -5.7480 1.4160 -4.8654 4.8236 -2.3014 -3.9923 2.1394 -5.2312 3.6894 3.6207 -6.0709 2.3289 4.1392 -4.3608 3.5748 0.8198 -0.7648 3.0255 -2.2831 1.4914 1.5877 2.5570 -4.4184 0.5932 4.2406 -1.2494 -3.1765 4.2782 -1.6493 -1.7152 3.2935 -0.8248 -0.9094 3.4087 -1.0855 0.5834 0.6882 2.6796 0.5577 0.9392 0.3706 1.0176 2.4687 -2.6997 2.1412 -1.3817 0.5616 -0.3419 -1.1066 6.4518 1.4060 -0.1235 5.8834 2.3121 -1.4526 5.7976 0.2829 0.4399 4.6950 2.0318 -0.8421 4.5188 -0.0227 -2.2228 0.2471 -2.4961 -3.8147 0.4687 -0.6844 -3.3327 0.1761 -3.4224 -4.8461 0.4318 -1.5485 -5.7968 0.2822 -3.8661 2.1347 -1.6732 1.1779 0.1038 1.5097 1.3209 1.2594 -0.6464 1.8855 -1.3214 1.2042 0.8779 2.6875 -3.9984 1.7399 0.0434 3.9794 0.8333 -2.4470 0.4513 -1.1863 -4.5990 0.2980 -2.9782 3.1417 -4.9040 2.8364
-5.0405 -0.4630 -5.3695 -4.3085 1.8846 -5.6585 5.7915 0.8926 -1.7039 -0.4863 -3.4076 0.0847 1.0176 -4.2367 -1.2708 -0.4187 -5.5473 -0.2901 0.2271 -1.8100 2.5865 -2.1930 1.2406 1.4635 1.4558 -5.8002 1.5009 4.5218 1.1971 -1.0665 4.4043 0.3928 0.2074 3.8679 -0.9897 -0.0900 3.3634 -1.6526 1.1708 0.9191 2.2170 1.1883 0.9827 -0.1378 1.1751 1.9313 -3.5650 1.5437 -1.0691 0.4009 -0.3961 0.3950 5.4333 3.9418 1.1848 4.2729 4.3141 -0.1646 5.5088 2.7209 1.3543 3.2639 3.4405 0.0060 4.4209 1.7787 -1.5453 0.2150 -2.6680 -3.3770 0.7220 -1.1715 -2.4621 0.3166 -3.7827 -4.2264 0.8410 -2.2092 -4.7463 0.8374 -4.6599 1.9807 -2.2463 0.9546 0.1727 0.9682 1.5964 0.9724 -1.4020 1.7038 -1.1644 0.9005 0.8857 1.2995 -4.6700 1.0378 0.7127 3.3356 2.1356 -1.9679 0.4644 -1.4169 -3.7494 0.6517 -3.5722 0.3590 -4.4495 -0.1052
-5.7329 2.4317 -5.6432 -7.5665 1.7529 -4.1178 8.0362 -0.3494 0.4676 2.7091 -5.7813 2.5336 0.7014 -5.7312 1.6786 2.3335 -6.6646 0.5803 0.0691 -1.8495 1.3959 -0.5272 -0.2626 -1.5526 2.4902 -4.2263 -0.5116 6.6898 0.1756 0.3293 5.8170 -0.4277 1.4053 4.3633 -0.2730 1.0265 3.4707 -1.0978 1.9300 0.5546 2.3237 0.2580 1.1355 0.0116 0.5296 2.3754 -3.2418 1.5813 -2.1045 1.1939 -0.6367 -0.4477 5.0033 3.4384 -1.3471 4.8032 2.3168 0.7170 4.3331 3.4976 -1.0127 3.9529 1.3307 1.0797 3.4140 2.4326 -3.1265 0.3050 -2.6194 -4.1926 2.1183 -1.4341 -4.1814 0.3674 -3.6107 -5.1713 2.1825 -2.3583 -6.1700 1.4366 -4.5948 2.4792 -1.8838 1.0967 0.0086 0.9260 0.4840 1.0958 -1.2539 1.0815 -0.8728 0.5493 -0.6978 2.3242 -4.3052 0.7031 0.2407 3.2211 1.3988 -3.0973 1.1689 -1.5868 -5.1596 1.2870 -3.5097 2.0192 -5.6100 1.3775
-5.3755 -2.0135 -4.3155 -5.5614 0.2244 -5.3881 3.2777 -0.7993 -4.0398 4.0292 -4.8825 2.2286 2.0845 -5.1117 3.1972 2.4926 -6.1238 1.3122 0.8294 -1.0669 2.5824 -2.2818 1.1740 1.4927 1.2068 -3.9255 0.4605 3.2439 -1.4568 -2.7463 4.3219 -0.8810 -1.8576 3.6926 0.0312 -0.8299 3.7057 -0.5787 0.5564 0.5671 2.8237 0.8181 0.9932 0.4593 0.8511 2.7972 -2.6136 1.5193 -1.2782 0.9952 -0.6093 -0.4637 6.1010 3.3637 0.6970 5.2770 3.6493 -1.2265 5.8433 2.2864 1.0080 4.2478 2.8411 -0.8908 4.7352 1.4112 -3.6227 0.9158 -1.0872 -2.0129 0.2459 -2.7641 -4.6828 0.5145 -1.9899 -2.9968 -0.1156 -3.6081 -5.4680 -0.5248 -4.0815 2.4609 -1.4066 0.8046 0.0848 1.4774 1.3241 1.3732 -0.6584 1.5606 -1.2929 1.1800 0.7627 2.1523 -3.7986 1.2350 0.1661 3.9524 1.6936 -2.3353 0.7370 -1.4336 -4.3904 -0.0107 -3.1944 2.6958 -4.9669 1.9945
-5.8123 1.2903 -5.4139 -7.4815 1.4479 -3.5832 6.0093 -1.9579 -2.6325 0.6086 -3.8453 2.1058 2.1615 -5.3734 2.2219 0.6761 -5.1933 3.8042 0.5129 -0.9788 2.6231 -0.4307 -0.7520 -1.2204 2.7500 -3.8671 4.8508 4.9176 -1.0256 -2.4097 4.8432 -0.6817 -0.9394 4.0843 -1.7556 -0.1934 3.7981 -1.3225 1.2253 1.2096 1.9741 -0.2559 1.3519 -0.2455 0.6051 2.7425 -2.3879 3.1128 -1.7114 1.1085 -0.6429 -0.0208 5.8126 1.1668 -0.6986 5.1693 0.0572 1.0067 5.1974 1.7797 -0.2802 3.9681 -0.3740 1.4422 3.8857 1.3303 -3.0943 -0.1786 -2.1169 -3.7489 2.0635 -1.4971 -4.2637 -0.2549 -2.9675 -4.8302 1.9989 -2.2970 -6.2195 0.7689 -4.0568 2.5342 -1.9949 1.7334 0.4306 0.8416 0.3829 1.3701 -1.0146 1.7445 -0.5887 0.2960 -0.5991 2.3689 -3.5581 3.7197 0.8137 3.2917 0.3002 -2.8173 0.9474 -1.4339 -5.0917 0.8003 -3.0850 1.4576 -4.4745 2.9550
-6.0406 2.1672 -4.2780 -6.1935 -0.2972 -4.5293 6.4807 -1.0131 -2.7886 1.1492 -5.9385 2.5169 2.9198 -6.5817 1.4220 3.1313 -5.2607 3.1420 0.1889 -1.3618 2.6981 -2.3624 1.3676 1.4655 2.4115 -4.4744 -0.0679 5.3768 -0.3513 -2.1130 5.0277 -1.0955 -0.8400 3.6363 -0.7246 -0.3620 3.3330 -1.3150 1.0053 0.7218 2.5496 0.9052 0.9020 0.2117 1.1642 1.9734 -3.1694 1.7984 -1.2718 0.5948 -0.4393 -1.0580 6.2847 1.9333 -0.2022 5.5909 2.8791 -1.2881 5.7600 0.7166 0.3574 4.4148 2.5441 -0.6829 4.4952 0.3501 -1.8929 0.5381 -2.7003 -3.6504 0.6309 -1.0431 -2.9095 0.5915 -3.7349 -4.5929 0.6992 -2.0011 -5.2579 0.8858 -4.4539 1.9339 -1.9158 1.0806 0.0347 1.3245 1.4729 0.9292 -1.0132 1.7838 -1.3345 1.1113 0.8409 2.2451 -4.3506 1.1425 0.0789 3.8373 1.2412 -2.2399 0.6232 -1.4032 -4.2110 0.7075 -3.4087 2.3568 -5.5228 2.0606
-6.7757 -1.3204 -3.3170 -6.7265 0.6414 -4.8305 4.5321 -3.6281 -2.8260 4.1267 -4.1087 4.1594 2.2242 -3.6405 5.1229 2.4966 -5.5491 4.1131 0.5739 -0.8094 2.3386 -0.2900 -0.0787 -1.6031 1.4115 -4.2140 2.0764 5.1119 -2.2976 -2.7650 5.1453 -1.8285 -1.3293 3.7924 -1.3174 -0.8913 3.7678 -1.1515 0.6134 1.1086 2.5104 -0.1830 1.3805 0.2338 0.4445 2.8020 -2.4028 2.4524 -1.7578 1.5270 -0.7602 -0.6597 6.1452 1.2016 -0.7849 5.7248 -0.1818 0.0313 5.3930 2.0768 -0.2062 4.5828 -0.5904 0.6540 4.1564 1.6376 -4.0952 1.7477 -0.9866 -2.9026 0.5098 -2.6821 -5.3368 1.4189 -1.6674 -4.0511 0.1844 -3.3019 -6.5931 0.1768 -3.4005 2.5018 -1.7476 1.1972 0.3797 1.2679 0.2953 1.4017 -0.7201 1.4357 -0.5745 0.8002 -0.7938 2.2596 -3.6360 2.7516 0.5217 3.7595 0.3592 -2.9221 1.2604 -1.4344 -5.3275 0.6331 -2.7614 2.7808 -4.2227 4.0304
-7.6468 0.3880 -3.6135 -6.2974 1.5930 -5.2903 6.3729 -1.5636 -2.4533 1.3599 -5.3946 4.2795 3.4809 -5.5977 3.8306 2.7511 -3.8296 4.8781 0.1497 -1.7558 1.6250 -0.8618 -0.6156 -1.4483 1.8180 -4.7065 1.5927 6.7478 -1.2722 -1.0808 5.5778 -0.6234 -0.3766 4.8861 -1.6275 0.5173 3.7029 -1.0016 1.2252 0.9565 1.9923 -0.4476 1.2031 -0.2815 0.2047 2.5501 -2.7141 2.5203 -2.0065 1.2350 -0.6011 -0.4490 5.7762 0.9488 -0.4937 5.4229 -0.4580 0.0617 4.9145 1.8467 -0.0274 4.2302 -0.8647 0.5698 3.6266 1.4082 -3.4542 0.2328 -2.2260 -4.0903 2.3254 -1.2019 -4.6314 0.3110 -3.0604 -5.1925 2.3999 -1.9762 -6.6716 1.5244 -3.8257 2.5407 -1.9749 1.2762 0.2414 0.8056 0.1670 1.1785 -1.3100 1.1205 -0.9114 0.3841 -0.7351 2.2410 -4.0585 2.5479 0.5065 3.2920 0.1067 -3.1573 1.2142 -1.3539 -5.4654 1.3633 -2.9645 2.4603 -4.7041 3.8825
-7.6724 1.3652 -3.7795 -7.8487 -0.5326 -2.2069 2.6512 -2.2893 -3.4768 5.0433 -3.2837 5.0713 3.1705 -2.2743 5.5548 3.2440 -4.4477 5.4507 1.1933 -0.1253 2.5293 -0.6118 -0.7006 -1.8043 3.4812 -4.3184 2.7155 3.2446 -1.1365 -2.8218 4.2682 -1.5689 -1.7940 3.6363 -2.3356 -0.6524 3.7609 -1.5759 0.6498 1.2202 1.7759 -0.6127 1.0949 -0.4769 0.2526 3.0148 -2.0608 2.9121 -1.8283 1.1379 -1.0467 -0.3487 5.7059 0.0596 0.2678 4.9671 1.1473 -0.4101 5.1666 -1.1706 0.7723 3.7383 0.9298 0.1420 3.8469 -1.4082 -4.1237 1.6383 -1.1427 -3.2466 0.0605 -2.7488 -5.4500 1.3944 -1.6763 -4.4793 -0.1859 -3.2309 -6.9671 0.1469 -3.2297 2.5696 -1.8696 1.5440 0.3080 0.6984 -0.0551 1.5750 -0.7196 1.5247 -0.7432 0.2733 -1.0682 3.3790 -3.2993 3.3948 0.6881 3.1480 -0.3971 -3.0633 0.9556 -1.6132 -5.6342 0.4938 -2.6613 3.7023 -3.3122 4.8610
-5.5948 -0.2687 -5.2619 -5.1570 2.1666 -5.2810 5.3408 2.9250 -0.5599 3.3038 -5.6905 1.6458 1.5507 -6.3575 0.5218 3.5354 -6.4828 -0.3696 0.0940 -2.0666 1.8686 -2.4979 0.9037 1.5653 2.8483 -4.1188 -1.3498 4.1604 2.1020 -0.7620 4.1492 1.0048 0.2769 3.7534 -0.3209 -0.3371 3.3578 -1.3027 0.7487 0.4735 2.2521 1.2683 0.8243 -0.0692 0.9608 2.1631 -3.4100 0.7546 -1.4146 0.4635 -0.4462 -0.7066 5.2206 4.1011 0.3860 4.3117 4.3996 -1.3499 5.1406 2.9229 0.7526 3.3784 3.5023 -0.9554 4.1414 1.9500 -2.0348 0.4872 -2.6886 -3.8018 0.5776 -1.0387 -3.0331 0.6187 -3.7261 -4.7310 0.7236 -2.0025 -5.4147 0.9625 -4.4039 2.0540 -2.0101 0.4142 -0.1018 0.8756 1.5388 0.8933 -1.4204 1.2004 -1.4763 0.7539 0.8990 2.5836 -4.3426 -0.1714 0.0318 3.2766 2.2425 -2.3923 0.5182 -1.3930 -4.3320 0.7669 -3.4032 2.7381 -5.7104 0.4132
-6.1664 1.3333 -4.3209 -6.8090 -0.9633 -3.6305 1.9851 0.2540 -4.1008 4.9166 -3.9255 3.5441 3.0579 -4.8190 4.2654 4.2823 -5.8719 2.8038 1.5224 -0.5103 3.0293 -2.1995 1.4137 1.4227 2.6458 -4.6805 1.1043 3.1385 -0.4814 -3.6108 3.2730 -0.2623 -2.1204 2.7167 -1.4246 -1.3203 3.2680 -1.3899 0.0952 0.7922 2.4438 0.4215 0.9504 0.1017 0.8782 2.9283 -2.6396 2.1603 -1.3384 0.2916 -0.4280 -0.8928 6.2438 1.4045 0.0916 5.6274 2.2764 -1.2742 5.6262 0.2724 0.6213 4.4327 1.9573 -0.7006 4.3416 -0.0771 -2.2018 -0.3580 -2.5003 -3.7542 0.4545 -0.8321 -3.3058 -0.4595 -3.4346 -4.7766 0.3748 -1.7024 -5.6675 -0.0661 -4.0454 2.2597 -1.8611 1.1350 0.1784 1.2830 1.1767 1.5735 -0.6867 1.8161 -1.2546 1.0211 0.7417 3.0702 -4.0058 2.0394 0.1893 3.7583 0.7450 -2.4043 0.1265 -1.2617 -4.5447 -0.0810 -3.0677 3.8294 -4.6414 3.1637

>  <OB_ATOM_TYPES> (1elcA1)
C.3 C.3 N.3 F F F O.2 O.2 O.2 C.3 C.3 C.3 C.3 C.3 N.am N.am N.am C.ar C.ar C.ar C.ar C.ar C.ar C.ar C.ar C.ar C.3 C.3 C.3 C.2 C.2 C.2 C.ar C.ar C.ar C.3

>  <ENSEMBLE_RMSD> (1elcA1)
2.220 2.253 2.254 2.367 2.446 2.447 2.463 2.631 2.717 2.766 2.768 2.797 2.808 2.887 3.052 3.079 3.111 3.123 3.185 3.238 3.332 3.407 3.444 3.444 3.464 3.503 3.512 3.520 3.571 3.582 3.587 3.592 3.606 3.658 3.705 3.726 3.733 3.783 3.784 3.808 3.831 3.837 3.857 3.872 3.915 3.920 3.966 4.002 4.007 4.044

$$$$
