
 OpenBabel03071213D

 33 34  0  0  0  0  0  0  0  0999 V2000
   36.6840   20.6880   34.6270 C   0  0  0  0  0
   40.1680   26.0130   38.4550 F   0  0  0  0  0
   42.1880   25.7120   37.8140 F   0  0  0  0  0
   41.3470   24.4930   39.3840 F   0  0  0  0  0
   34.8420   14.3280   41.4050 F   0  0  0  0  0
   33.9390   15.8470   42.6480 F   0  0  0  0  0
   36.0810   15.6460   42.6020 F   0  0  0  0  0
   36.4060   18.4490   36.2810 O   0  0  0  0  0
   38.4750   21.6320   38.4420 O   0  0  0  0  0
   39.8620   24.2650   36.1840 O   0  0  0  0  0
   41.5110   21.1280   38.2940 C   0  0  0  0  0
   38.5180   21.0400   36.2340 N   0  0  0  0  0
   40.9700   23.1420   37.5630 N   0  0  0  0  0
   36.3590   19.8010   38.1430 N   0  0  0  0  0
   41.0150   17.1030   39.7210 C   0  0  0  0  0
   40.5660   17.4020   38.4320 C   0  0  0  0  0
   41.5820   18.1070   40.5100 C   0  0  0  0  0
   40.7010   18.7190   37.9480 C   0  0  0  0  0
   41.7130   19.4170   40.0480 C   0  0  0  0  0
   35.3280   19.1230   40.1680 C   0  0  0  0  0
   36.2220   17.4820   38.6430 C   0  0  0  0  0
   34.9970   18.1190   41.0610 C   0  0  0  0  0
   35.8830   16.4730   39.5350 C   0  0  0  0  0
   37.0740   20.7830   36.1130 C   0  0  0  0  0
   40.6090   21.7700   37.2920 C   0  0  0  0  0
   36.5670   19.5410   36.8410 C   0  0  0  0  0
   39.0940   21.4720   37.3760 C   0  0  0  0  0
   41.2750   19.7220   38.7630 C   0  0  0  0  0
   40.5660   23.9890   37.1550 C   0  0  0  0  0
   35.9480   18.8160   38.9570 C   0  0  0  0  0
   35.2730   16.7710   40.7610 C   0  0  0  0  0
   41.0790   25.0440   38.1940 C   0  0  0  0  0
   34.9850   15.6300   41.8210 C   0  0  0  0  0
  1 24  1  0  0  0
  2 32  1  0  0  0
  3 32  1  0  0  0
  4 32  1  0  0  0
  5 33  1  0  0  0
  6 33  1  0  0  0
  7 33  1  0  0  0
  8 26  2  0  0  0
  9 27  2  0  0  0
 10 29  2  0  0  0
 11 25  1  0  0  0
 11 28  1  0  0  0
 12 24  1  0  0  0
 12 27  1  0  0  0
 13 25  1  0  0  0
 13 29  1  0  0  0
 14 26  1  0  0  0
 14 30  1  0  0  0
 15 16  2  0  0  0
 15 17  1  0  0  0
 16 18  1  0  0  0
 17 19  2  0  0  0
 18 28  2  0  0  0
 19 28  1  0  0  0
 20 22  2  0  0  0
 20 30  1  0  0  0
 21 23  1  0  0  0
 21 30  2  0  0  0
 22 31  1  0  0  0
 23 31  2  0  0  0
 24 26  1  0  0  0
 25 27  1  0  0  0
 29 32  1  0  0  0
 31 33  1  0  0  0
M  END
>  <MOLID> (1eldA1)
1eldA1

>  <SMILES_CANONICAL> (1eldA1)
C[C@@H](C(=O)Nc1ccc(cc1)C(F)(F)F)NC(=O)[C@H](Cc1ccccc1)NC(=O)C(F)(F)F	

>  <FINGERPRINT> (1eldA1)
0000000000000000010000000000001000000000000000000011101000000000000000000001000000000001001000000000010000000001000001100000000000100000000000000000000000000000000000000000000000000000110000000000000000000000000001000000000000100000000000000000000000001100000000000000000000001000100000001000000000001000000010101101000000001000001110000000000000000100010000000000000010110000000000000000011000000000100000000000001000000001010100001010000000000001100000000000001000000000010000000000000000000100000000000000000000000000000001000000000000000000000000100000000000000000000000000000100000000000000000000000100000000000000000000000001000000101010000000001000000000001000000000011100000100000000001100000000000100000000000000010000000000011100000110110000000000000000110100000000000000000000010000000000010000000000000000000000000000000000000000000000000000010000000001001000000000000000000001000000000001100000000001000000000000000000000000000011000000000000010110010000000010000010000000000000000000000000000000000011000000000

>  <MACCS166> (1eldA1)
000000000000000000000000000000000000000001001000010001000000000000000000000100100000000001010010001000010111011100001000000010000010111100011100110010100111011110111000

>  <OB_MW> (1eldA1)
475.133

>  <OB_logP> (1eldA1)
4.2932

>  <OB_PSA> (1eldA1)
87.3

>  <OB_MR> (1eldA1)
105.28

>  <OB_ATOMIC_CHARGES> (1eldA1)
0.0333840641 -0.1620041986 -0.1620041986 -0.1620041986 -0.165857779 -0.165857779 -0.165857779 -0.2711281405 -0.2714639081 -0.264187589 0.0574180724 -0.1963191929 -0.1903495723 -0.1777726954 -2.0017e-05 -0.0003216891 -0.0003216891 -0.0041981883 -0.0041981883 0.0165410327 0.0165410327 0.0051854876 0.0051854876 0.1731772892 0.1772980949 0.2654014502 0.2619524453 -0.0199564182 0.3371191946 0.0734046299 0.0715044247 0.4711314502 0.4185790652

>  <MCT_HBD> (1eldA1)
3

>  <MCT_HBA> (1eldA1)
6

>  <ENSEMBLE_TOTAL> (1eldA1)
50

>  <ENSEMBLE_COORDS> (1eldA1)
-1.7350 0.7587 -4.0825 1.7490 6.0837 -0.2545 3.7690 5.7827 -0.8955 2.9280 4.5637 0.6745 -3.5770 -5.6013 2.6955 -4.4800 -4.0823 3.9385 -2.3380 -4.2833 3.8925 -2.0130 -1.4803 -2.4285 0.0560 1.7027 -0.2675 1.4430 4.3357 -2.5255 3.0920 1.1987 -0.4155 0.0990 1.1107 -2.4755 2.5510 3.2127 -1.1465 -2.0600 -0.1283 -0.5665 2.5960 -2.8263 1.0115 2.1470 -2.5273 -0.2775 3.1630 -1.8223 1.8005 2.2820 -1.2103 -0.7615 3.2940 -0.5123 1.3385 -3.0910 -0.8063 1.4585 -2.1970 -2.4473 -0.0665 -3.4220 -1.8103 2.3515 -2.5360 -3.4563 0.8255 -1.3450 0.8537 -2.5965 2.1900 1.8407 -1.4175 -1.8520 -0.3883 -1.8685 0.6750 1.5427 -1.3335 2.8560 -0.2073 0.0535 2.1470 4.0597 -1.5545 -2.4710 -1.1133 0.2475 -3.1460 -3.1583 2.0515 2.6600 5.1147 -0.5155 -3.4340 -4.2993 3.1115
-2.3242 0.5167 -3.3556 3.8288 4.8204 0.5676 3.0465 6.5593 -0.4806 4.6149 5.3598 -1.3971 -3.5558 -5.0650 3.9925 -4.6947 -5.9043 2.3353 -5.5614 -4.3249 3.5540 -0.8128 -1.6681 -1.8778 0.1821 1.9346 -0.1866 1.5809 4.9356 -2.0721 2.7983 0.8503 -2.0372 -0.2151 1.1273 -2.3259 2.5539 3.1003 -1.0625 -2.0636 -0.6743 -0.1721 3.2695 -1.4086 1.5721 2.6004 -1.9573 0.5427 3.8948 -0.1075 1.4207 2.4384 -1.2171 -0.6973 3.7821 0.5575 0.2580 -3.1592 -1.3910 1.8358 -2.7096 -2.9714 0.0576 -3.7370 -2.3504 2.5806 -3.3128 -4.0094 0.8688 -1.5447 0.6298 -2.0698 1.9206 2.0830 -1.8716 -1.4320 -0.7216 -1.4046 0.5428 1.7390 -1.3429 2.9848 0.0068 -0.8249 2.4346 4.4435 -1.3399 -2.6073 -1.7149 0.5289 -3.8177 -3.7167 2.0819 3.4783 5.2834 -0.6595 -4.4039 -4.7446 2.9815
-1.0357 -0.4437 -4.1370 3.6369 6.2255 -1.0012 3.8770 4.8608 0.6812 1.9603 5.8424 0.3295 -4.1638 -4.9680 3.0910 -3.8608 -3.1806 4.3012 -2.1950 -4.5215 3.9167 -3.4730 0.3745 -1.9084 -0.8475 2.6577 -1.2081 3.0462 3.9285 -2.2893 1.4898 1.0974 0.4095 -0.1304 0.6775 -2.1737 1.6576 3.3069 -0.5392 -2.0405 -1.4248 -1.5612 3.6392 -2.5965 0.4712 2.3251 -2.6097 0.1845 4.3300 -1.3311 0.6479 1.5888 -1.3610 0.1025 3.6531 -0.1731 0.5436 -1.7893 -3.2478 -0.0256 -3.1382 -1.3297 0.5716 -2.0850 -3.8566 1.1368 -3.4601 -1.9868 1.8243 -1.3231 0.4310 -2.9417 1.4385 1.9137 -0.8687 -2.3886 -0.1844 -2.0620 0.0329 1.8309 -1.4291 2.2265 -0.1860 0.2599 2.5972 4.0998 -1.1603 -2.3340 -1.9325 -0.3238 -2.9568 -3.2038 2.1049 3.0136 5.2504 -0.2908 -3.2909 -3.9590 3.3441
-1.4019 -0.9735 -3.0617 3.2929 6.6181 -0.5000 4.7790 5.0729 -0.8955 3.4049 4.8640 0.7852 -3.4762 -6.1406 2.6435 -5.4025 -5.2317 3.0845 -3.6528 -4.6972 4.2678 -0.5808 -0.0499 0.2019 -0.2604 2.8306 -1.4454 1.8850 5.1658 -2.2718 2.9307 1.0459 -2.0749 0.1181 0.7332 -2.3238 2.4200 3.2332 -1.1151 -2.6797 -0.7494 -0.4952 2.6989 -1.4657 1.3954 2.4184 -1.9839 0.1864 3.1503 -0.0903 1.5070 2.5227 -1.1524 -1.0002 3.2716 0.6697 0.4048 -2.0543 -2.7854 0.7094 -4.2724 -1.8249 0.8557 -2.4013 -3.7831 1.5426 -4.6514 -2.9107 1.7390 -1.2141 0.2036 -2.1307 1.9965 2.2478 -2.0849 -1.4080 -0.2320 -0.6869 0.5104 1.9799 -1.8867 2.8868 0.1394 -0.8926 2.5218 4.5737 -1.4058 -3.0178 -1.7465 0.3780 -3.7574 -3.8613 2.0705 3.4941 5.2750 -0.5067 -4.0709 -4.9746 3.0065
-0.7421 -0.6481 -4.3338 2.9543 6.2600 -0.2916 3.4913 4.6837 1.1135 1.4369 5.4049 1.0081 -3.1887 -4.6189 3.6715 -4.8118 -3.1711 3.7390 -2.8652 -2.6601 4.5710 -3.4084 -0.3313 -2.5733 -0.9538 2.2391 -1.1186 2.6072 4.1344 -1.9464 1.5765 0.7007 0.2891 -0.0014 0.5152 -2.3397 1.4466 3.0416 -0.2626 -1.7137 -1.5341 -1.5406 4.2082 -2.6171 -0.2756 2.9091 -2.7510 -0.5970 4.7293 -1.3187 0.1140 2.0121 -1.6181 -0.4634 3.9015 -0.2624 0.2128 -1.3496 -2.7757 0.4802 -3.3111 -1.3844 0.2362 -1.7730 -3.2114 1.6802 -3.7669 -1.8482 1.5319 -1.1506 0.1959 -3.1498 1.3978 1.7130 -0.8270 -2.2150 -0.5488 -2.3714 0.0150 1.5510 -1.4262 2.4858 -0.4161 -0.0860 2.2211 4.0536 -0.7844 -2.1453 -1.8218 -0.2739 -3.0456 -2.7526 2.2208 2.5238 5.0943 0.2548 -3.4740 -3.2974 3.5383
-1.2451 0.7489 -3.3673 1.0207 6.2594 -0.1612 2.8154 5.2912 0.6158 0.8514 4.4238 0.9988 -3.1632 -4.2543 4.3379 -5.0076 -4.8354 3.3420 -4.8871 -2.9220 4.3782 -1.7808 1.0037 -0.3259 1.8699 0.8246 -3.6614 1.6000 4.7141 -2.3186 3.7243 1.2540 -0.9290 0.5770 0.8188 -1.7324 1.9841 2.9293 -0.8845 -2.1726 -1.1893 -1.0182 3.6063 -2.9048 0.0592 3.7222 -2.5494 -1.2327 3.4715 -1.8827 1.0828 3.7566 -1.1451 -1.5979 3.4551 -0.5830 0.7388 -2.0044 -1.7062 1.3501 -3.8484 -2.4999 -0.0061 -2.4995 -2.3244 2.4359 -4.3695 -3.1873 1.1630 -0.5626 0.0706 -2.2011 2.6811 2.0023 -1.7378 -1.5460 0.0456 -1.0569 1.6760 1.1556 -2.4938 3.5779 -0.1984 -0.6582 1.7308 4.2443 -1.1945 -2.7269 -1.7633 0.0904 -3.7178 -3.1163 2.3400 1.6020 5.0536 0.0577 -4.1908 -3.7782 3.5869
-0.8994 -0.5826 -4.3611 2.8817 6.3134 -0.3550 3.5470 4.7067 0.9561 1.4719 5.3660 1.0089 -3.9293 -4.5099 3.5535 -4.5368 -2.4997 4.1149 -2.5320 -3.2064 4.6028 -3.4182 -0.4761 -2.4052 -0.9734 2.1087 -0.9840 2.5215 4.2452 -2.0536 1.7030 0.7583 0.1892 -0.0252 0.5356 -2.3932 1.4393 3.0739 -0.3712 -1.5971 -1.5186 -1.4136 4.1690 -2.6797 -0.3945 4.7369 -1.4629 -0.4624 2.7297 -2.8012 -0.2476 3.9151 -0.2707 -0.3318 1.9654 -1.6976 -0.1649 -1.8951 -3.2453 0.2349 -2.6040 -0.9735 0.6810 -2.3174 -3.6475 1.4478 -3.0911 -1.4161 1.9750 -1.2309 0.1868 -3.1071 1.4259 1.7386 -0.9322 -2.2035 -0.6177 -2.2690 0.0084 1.5144 -1.4190 2.5794 -0.3781 -0.2011 2.1797 4.1129 -0.8829 -2.0742 -1.8641 -0.1779 -2.9718 -2.7055 2.3466 2.5159 5.1186 0.1754 -3.4903 -3.2261 3.6411
-1.2584 -0.6446 -2.6243 3.0548 6.9765 -2.2173 4.6298 5.6098 -1.5861 3.0542 6.1843 -0.1910 -4.2484 -6.2687 2.2218 -5.9278 -5.1348 3.0128 -4.0216 -5.1334 4.0692 -0.5515 -0.3660 0.7073 0.0110 2.6341 -0.0535 2.0346 4.6280 -3.1059 3.0752 1.6373 -0.2559 0.2538 0.9071 -1.5811 2.2640 3.7672 -0.9718 -2.7116 -0.6302 -0.0929 3.7463 -2.5626 -0.0139 4.2118 -1.9017 -1.0894 2.9071 -1.8761 0.9505 3.9324 -0.4843 -1.2511 2.6271 -0.5718 0.7867 -2.4423 -2.9481 0.6146 -4.3153 -1.5934 1.3413 -2.8956 -4.0034 1.3144 -4.8135 -2.7400 2.0787 -1.0990 0.3941 -1.5355 2.1275 2.3417 -1.2092 -1.3815 -0.2510 -0.1899 0.6831 2.0142 -0.8727 3.1625 0.1571 -0.3527 2.4789 4.6945 -1.9635 -3.1641 -1.6847 0.6528 -4.1416 -3.9071 2.0620 3.2995 5.8579 -1.4867 -4.5815 -5.1019 2.8327
-0.7895 -0.9746 -3.1285 2.8302 7.0654 -1.3605 4.1550 5.7041 -0.2927 2.1234 6.0438 0.4258 -4.9066 -5.7502 2.8756 -6.1082 -4.0895 3.6130 -4.1119 -4.4233 4.4132 -0.4145 -0.7694 0.2733 -0.1574 2.2178 -0.2505 2.3527 4.8082 -2.7756 3.0063 1.5783 -0.2126 0.4316 0.6849 -1.8834 1.9889 3.6718 -0.7907 -2.4320 -1.2954 -0.7589 4.2109 -2.5006 -0.6872 3.3108 -2.1827 0.2598 4.6990 -1.4767 -1.5946 2.8598 -0.8097 0.3951 4.2590 -0.2092 -1.4861 -2.2692 -3.0267 0.9471 -4.3470 -1.8688 0.4915 -2.8511 -3.7583 1.9128 -4.9830 -2.6835 1.5114 -0.8468 0.0126 -1.9836 2.0792 2.2788 -1.1939 -1.1683 -0.7264 -0.6953 0.6601 1.7594 -1.0441 3.2933 0.1390 -0.4563 2.3958 4.7422 -1.5517 -3.0325 -2.0082 0.2422 -4.2650 -3.5822 2.2119 2.8717 5.8815 -0.6965 -4.8450 -4.4521 3.2698
-1.1436 0.5354 -3.3951 1.0720 6.3339 -0.1266 2.5222 5.0876 0.9242 0.4553 4.4252 0.7162 -3.5081 -4.1088 4.4430 -5.1844 -4.8539 3.2735 -5.2785 -2.8690 4.1657 -1.7156 0.8374 -0.3395 2.0186 0.7412 -3.5845 2.0449 4.9383 -2.2632 3.6271 1.4266 -0.6735 0.6323 0.7760 -1.7266 1.8540 3.0056 -1.0002 -1.9925 -1.3868 -0.9933 3.8120 -2.8024 -0.1175 2.7367 -2.1374 0.3426 4.9052 -2.0772 -0.7417 2.6678 -0.6945 0.2050 4.8230 -0.7448 -0.9057 -2.1026 -1.7142 1.4112 -3.7286 -2.7003 -0.0853 -2.6963 -2.2759 2.4786 -4.3569 -3.3266 1.0658 -0.4437 -0.0627 -2.1951 2.6870 2.0558 -1.6889 -1.4407 -0.1161 -1.0628 1.7588 1.1186 -2.4444 3.6318 -0.0383 -0.4665 1.8358 4.3596 -1.2045 -2.6609 -1.8993 0.0824 -3.8524 -3.1466 2.3031 1.4704 5.0547 0.0700 -4.4501 -3.7409 3.5336
-1.1083 -0.8092 -2.5692 2.6177 7.0017 -2.0801 4.3857 5.7933 -1.6787 2.9194 6.1456 -0.1033 -4.6595 -6.1480 2.0387 -6.3968 -4.9429 2.5505 -4.7240 -5.0821 3.9393 -0.1161 -0.9988 0.4643 0.0051 2.5093 0.0163 1.8425 4.5462 -2.9970 3.0868 1.6368 -0.0695 0.3340 0.8360 -1.5554 2.2331 3.7270 -0.8661 -2.3815 -0.5299 0.3238 4.2589 -2.4711 -0.2866 3.3031 -2.1003 0.5835 4.8158 -1.4952 -1.2074 2.8725 -0.7157 0.6313 4.3750 -0.2231 -1.1973 -2.3535 -2.8701 1.0665 -4.3482 -1.5080 1.1718 -2.9935 -3.9094 1.6299 -5.0433 -2.6340 1.7706 -0.9650 0.2047 -1.4566 2.1622 2.2943 -1.0800 -1.0749 -0.5250 -0.1349 0.7176 1.9240 -0.7939 3.3522 0.1842 -0.2467 2.3195 4.6606 -1.8719 -3.0522 -1.6154 0.8265 -4.3993 -3.7965 1.9896 3.0559 5.8931 -1.4308 -5.0409 -4.9821 2.6228
-1.9907 1.3393 -2.6350 2.6498 6.4182 -2.5679 2.4282 4.5238 -3.6208 4.4074 5.2231 -3.0448 -4.8753 -6.0020 1.4303 -4.8177 -5.1757 3.4457 -3.0162 -6.0303 2.5719 -0.5678 -0.8588 -0.9289 0.0442 2.2657 1.1239 3.7618 4.7358 -0.3624 2.6115 1.1718 -0.8761 -0.1846 1.8787 -1.1558 2.0352 3.4927 -1.2652 -2.6951 -0.3646 -0.0919 3.4821 -2.1411 1.6925 2.8545 -2.3507 0.5218 3.8395 -0.7916 2.0930 2.5300 -1.2248 -0.3329 3.5251 0.2531 1.3058 -2.5227 -2.7951 -0.0111 -3.9151 -1.5454 1.5290 -2.8264 -3.9518 0.5997 -4.2874 -2.7996 2.1527 -1.5193 1.3455 -1.1990 1.9836 2.4221 -0.2866 -1.4951 -0.0836 -0.7231 0.5114 2.1978 -0.0097 2.8178 0.0315 0.0547 3.0214 4.4490 -1.2991 -3.0430 -1.5400 0.5057 -3.7523 -3.9573 1.7218 3.1172 5.1444 -2.6284 -4.1123 -5.2801 2.2902
-2.6845 0.8081 -3.8465 4.3644 5.5208 -1.1323 4.9724 3.4806 -0.6651 3.4240 4.4592 0.5181 -3.6700 -5.6387 2.5834 -2.7985 -4.2428 4.0057 -1.5051 -5.5397 2.8256 -3.6875 0.8022 -0.6521 -0.4975 2.3022 -0.4495 2.7638 4.1672 -2.8515 2.0983 0.4092 -1.3573 -0.7515 1.0584 -2.3865 2.0407 2.8612 -1.0846 -2.4555 -1.0057 -1.4445 2.1604 -0.3077 2.8664 3.1148 0.4687 2.3232 1.1807 -0.9549 2.0133 3.1461 0.6784 0.8879 1.2021 -0.7502 0.6841 -2.8310 -3.2526 -0.6619 -2.1822 -1.4981 0.8732 -2.8427 -4.1573 0.3346 -2.2186 -2.4681 1.9507 -2.1856 1.1744 -2.4713 1.4547 1.7296 -1.7632 -2.8561 0.3190 -1.4189 -0.0230 1.7512 -1.4396 2.1957 0.1368 0.1040 2.8625 3.7789 -1.6929 -2.5080 -1.8640 -0.3795 -2.5503 -3.7488 1.7025 3.8986 4.3059 -0.7454 -2.6312 -4.7833 2.7700
-1.8943 1.3151 -2.7908 2.1232 5.9233 -2.9395 3.4191 4.2875 -3.5782 4.2705 6.0327 -2.5933 -4.7102 -6.0434 1.5994 -4.6221 -5.1694 3.5939 -2.8247 -6.0037 2.6938 -0.6462 -1.0111 -1.2560 -0.0819 2.4316 0.9490 3.6662 4.8702 -0.2562 2.7162 1.2788 -0.8024 -0.0888 1.7000 -1.2555 2.0422 3.5693 -1.2737 -2.6225 -0.4198 -0.1514 2.9545 -2.1688 1.7338 3.2977 -0.9708 2.2406 2.5207 -2.2737 0.3526 3.2226 0.2188 1.4106 2.4401 -1.1704 -0.4120 -2.3855 -2.8456 0.0545 -3.8788 -1.5750 1.4699 -2.6708 -3.9799 0.7131 -4.2261 -2.8101 2.1519 -1.4567 1.2572 -1.3449 1.9655 2.5005 -0.2999 -1.4883 -0.1873 -0.9133 0.4881 2.2245 -0.1189 2.7779 0.1312 0.1434 3.0251 4.5338 -1.2470 -2.9693 -1.5836 0.4779 -3.6264 -3.9665 1.8096 3.2073 5.1877 -2.5845 -3.9441 -5.2827 2.4232
-2.3876 2.0370 -1.7649 1.7384 4.9101 -3.5693 3.6560 3.9364 -3.9357 3.5920 5.9956 -3.2272 -5.2111 -5.8300 1.1486 -4.2792 -5.6946 3.1141 -3.1148 -6.3774 1.4073 -0.8176 -0.5627 -1.0272 0.3956 2.6771 1.4050 3.9238 4.6605 -0.8839 2.5086 1.0717 -0.7706 -0.2193 2.0914 -0.7568 2.0786 3.3676 -1.4026 -2.5901 -0.1981 0.4559 3.5018 -1.9691 2.0760 2.6588 -2.2514 1.0667 4.0433 -0.6289 2.2164 2.2920 -1.2141 0.1206 3.6969 0.3337 1.3430 -2.7685 -2.5540 -0.1523 -3.4986 -1.7163 2.0002 -3.0905 -3.8127 0.1891 -3.8872 -3.0679 2.3525 -1.5780 1.6793 -0.5398 2.1005 2.4496 -0.2769 -1.5780 0.1777 -0.4120 0.6746 2.4282 0.2357 2.7632 0.0385 0.2676 3.0636 4.2854 -1.6747 -2.9314 -1.4722 0.8058 -3.6751 -4.0831 1.4937 3.0045 4.7783 -3.0936 -4.0650 -5.4854 1.7893
-2.6360 0.2653 -2.1118 3.7387 6.3858 -2.0252 4.8787 4.5976 -2.5271 4.2283 4.9417 -0.4734 -5.0901 -6.3315 1.0214 -5.9433 -5.5563 2.8670 -3.8853 -6.2699 2.8374 -0.5375 -0.8070 0.3741 0.3950 2.3497 0.1505 1.7270 4.7653 -2.8462 2.6142 0.7494 -1.8453 -0.4264 1.0600 -1.5911 2.4719 3.1603 -1.3592 -2.8068 -0.4749 0.7044 4.4896 -0.0915 1.9097 5.0136 0.8654 1.1234 3.3684 -0.8854 1.4389 4.4393 1.1200 -0.1840 2.8257 -0.6375 0.2340 -2.9812 -2.8717 0.2619 -4.0932 -1.8267 2.1428 -3.4599 -4.0795 0.6097 -4.6255 -3.1275 2.5047 -1.7271 0.7869 -1.0210 1.7498 2.0041 -1.8294 -1.5943 -0.2625 0.0671 0.5190 1.8465 -0.9618 3.3502 0.4389 -0.5883 2.5730 4.3285 -2.0731 -3.2840 -1.7031 1.0758 -4.3317 -4.2162 1.7680 3.8491 5.0569 -1.7726 -4.8093 -5.5814 2.1187
-0.0859 -1.9746 -3.6191 1.8164 6.0191 0.8639 2.8818 4.3578 1.7809 0.7008 4.4266 1.8367 -4.5750 -3.9808 4.0389 -5.8098 -2.2075 3.7838 -3.8962 -2.0603 4.8127 -2.9617 -0.5621 -2.5307 -0.3667 2.0172 -2.2025 2.0345 4.4821 -1.3137 2.3468 0.4494 -0.2731 0.3590 -0.1678 -2.0452 1.3291 2.6266 -0.1202 -1.7137 -1.9149 -1.1070 5.7680 -1.6190 -1.7892 4.5568 -2.1944 -1.8920 5.8873 -0.2718 -1.2619 3.3758 -1.4771 -1.4452 4.7893 0.4039 -0.8762 -1.9840 -2.9821 1.0207 -3.4778 -1.1964 0.3711 -2.6595 -3.1721 2.1674 -4.2063 -1.4001 1.6146 -0.6201 -0.7423 -2.9293 1.7205 1.5877 -1.0584 -1.8900 -1.0397 -2.1626 0.4527 1.1885 -1.8075 3.4790 -0.2222 -0.9676 1.7398 3.9364 -0.2539 -2.4121 -1.9650 0.0728 -3.8340 -2.3681 2.4745 1.7810 4.6737 1.0532 -4.5256 -2.6505 3.7642
-1.2270 0.3084 -2.9017 0.9470 6.2085 -0.3952 2.5056 5.1771 0.7332 0.4697 4.4009 0.7238 -4.6457 -4.9123 3.7683 -6.5861 -4.2854 3.0144 -5.5335 -3.0499 4.4700 -1.3635 0.5684 0.4454 1.9007 0.3546 -3.2411 1.9058 4.6085 -2.3789 3.4370 1.1501 -0.3393 0.6228 0.5016 -1.3097 1.8124 2.8213 -0.9025 -2.5425 -1.0822 -0.6919 6.2132 -2.0397 -1.0217 4.9389 -2.3327 -0.7072 6.6203 -0.6532 -1.1670 3.9790 -1.2619 -0.5023 5.7253 0.3376 -0.9965 -2.5498 -2.2959 1.4094 -4.5989 -1.7944 0.2147 -3.2348 -2.9446 2.3667 -5.3342 -2.5145 1.2406 -0.5387 -0.2702 -1.6836 2.6622 1.7967 -1.4776 -1.4972 -0.1897 -0.5117 1.6953 0.8127 -2.1197 4.3408 0.0217 -0.6848 1.7587 4.1466 -1.2536 -3.2628 -1.6645 0.3112 -4.6814 -3.0799 2.2747 1.4196 4.9823 -0.0563 -5.3582 -3.8260 3.3699
-2.1891 0.6633 -1.4553 3.4946 6.0640 -3.6851 4.8028 5.2388 -2.1551 3.0170 6.3578 -1.5861 -6.2740 -5.7775 0.9980 -5.7014 -5.6130 3.0960 -4.4312 -6.7009 1.7019 -0.4256 -0.7485 1.2509 0.0839 3.3793 0.1263 2.3784 3.6243 -3.5337 2.8835 1.9207 0.3054 -0.0020 1.1778 -0.5972 2.4106 3.7339 -1.2170 -2.7277 -0.5809 1.0648 4.9163 -1.8343 0.3650 3.7359 -1.7247 1.0003 5.4360 -0.7136 -0.3955 2.9863 -0.4818 0.9293 4.7279 0.4262 -0.4866 -4.6782 -1.9154 1.4477 -2.5469 -2.9772 1.0102 -5.2663 -3.1086 1.6371 -3.1829 -4.2672 1.2185 -1.3747 0.9363 -0.2120 2.0466 2.3671 -0.8813 -1.4234 -0.2499 0.7359 0.6075 2.4058 -0.4080 3.4481 0.5489 0.1953 2.7129 4.1727 -2.4877 -3.2616 -1.8413 1.1296 -4.4904 -4.3351 1.5333 3.5015 5.4520 -2.4731 -5.2143 -5.5988 1.8280
-1.3921 -1.1440 -2.6069 2.7593 6.5058 -1.6762 4.3857 5.1922 -1.0653 2.7500 5.6234 0.3123 -6.7931 -4.2609 3.4610 -4.9088 -5.1176 4.1285 -5.8551 -5.8589 2.3118 -0.8273 -0.6130 0.7087 -0.1686 2.2335 -0.1479 1.7241 4.2114 -2.6155 2.7676 0.8219 -0.1192 0.1103 0.4572 -1.6116 2.3087 3.1291 -0.6515 -2.9831 -0.8113 -0.1294 6.6207 -0.7010 -1.2185 6.1543 0.3792 -1.8705 5.7981 -1.3531 -0.2163 4.8422 0.9101 -1.5474 4.5722 -0.8765 0.0627 -4.9889 -1.9696 0.5342 -2.8442 -2.6082 1.4489 -5.6133 -2.8917 1.2910 -3.5160 -3.5974 2.2656 -1.2592 -0.0210 -1.6029 2.0319 1.7652 -1.0529 -1.6260 -0.5387 -0.2224 0.5429 1.5456 -0.8750 4.0689 0.3029 -0.6268 2.2923 4.1903 -1.5287 -3.5451 -1.8158 0.6165 -4.8544 -3.7286 2.2110 3.0429 5.3703 -0.9890 -5.5970 -4.7311 3.0220
-1.4552 -1.0769 -2.4941 3.1629 6.3697 -2.0828 4.5877 5.0432 -1.1055 2.8389 5.7595 -0.0184 -4.9752 -6.1853 2.5391 -6.8224 -5.0640 2.7857 -5.1873 -4.7888 4.2018 -1.1332 -0.4119 0.8825 -0.2666 2.4832 -0.3411 2.0629 4.0572 -2.8676 2.6303 0.9239 0.0250 0.0472 0.4481 -1.4034 2.2847 3.1972 -0.7292 -3.1544 -0.8122 -0.1871 6.5589 -0.5691 -0.7584 6.4036 0.7364 -0.4743 5.3920 -1.4247 -0.8906 5.0742 1.2755 -0.2489 4.1581 -0.9172 -0.7179 -2.9468 -2.9727 0.9391 -5.0230 -1.7272 0.9125 -3.5075 -3.9484 1.6763 -5.6336 -2.7909 1.6860 -1.3417 0.0518 -1.4923 1.9664 1.8132 -1.0116 -1.8224 -0.4290 -0.1340 0.4647 1.6555 -0.8766 3.9920 0.4856 -0.3787 2.4860 4.1333 -1.7181 -3.7234 -1.7970 0.5737 -4.9122 -3.8675 2.0527 3.2647 5.3176 -1.2293 -5.4700 -4.9682 2.8855
-1.4736 -0.8668 -3.2768 4.0791 5.5136 -0.7313 3.0950 4.8410 1.0898 2.1728 6.3838 -0.1347 -6.4489 -4.9311 3.1320 -6.3595 -3.0541 4.2289 -4.8005 -4.5526 4.5009 -0.5481 -1.6732 -0.0735 -0.3086 1.8624 -0.2212 1.6256 4.4565 -2.0871 2.7387 0.5805 -0.5080 0.1130 0.2863 -1.8607 2.1566 2.9310 -0.4270 -2.7762 -1.6435 -0.7574 6.6579 -0.4685 -1.9023 5.9755 0.4713 -2.5815 6.1022 -1.0207 -0.6801 4.6502 0.8732 -2.1373 4.8899 -0.6251 -0.2535 -4.3918 -3.2232 0.0748 -3.2105 -1.7419 1.5840 -5.0668 -3.7715 1.1017 -3.9200 -2.3558 2.6907 -1.2298 -0.2483 -1.9191 1.9310 1.6941 -1.1577 -1.4374 -1.2784 -0.8227 0.4608 1.3240 -1.0125 4.1160 0.3395 -1.0224 2.1480 4.1797 -1.0107 -3.4005 -2.1904 0.3295 -4.8100 -3.3421 2.4697 2.8678 5.2172 -0.1946 -5.5981 -3.9667 3.5702
-2.0317 0.2565 -2.6516 2.8207 5.7189 -2.5328 4.6586 4.5734 -2.2618 4.2314 6.2769 -0.9714 -5.6370 -4.9074 4.1999 -4.8666 -6.3814 2.7930 -6.7764 -5.4119 2.4086 -0.9518 -1.8386 -0.5811 -0.4823 2.9945 -0.8888 3.1501 4.3411 0.5785 2.5136 1.0591 -1.5819 -0.1770 0.7264 -1.1585 2.1232 3.4257 -1.2891 -2.9297 -0.8978 0.2472 6.1504 -0.4474 0.1183 6.1005 0.8343 -0.2852 4.9826 -1.2990 -0.0259 4.8789 1.3623 -0.8646 3.8421 -0.8010 -0.5399 -4.9568 -1.9202 1.0867 -2.8201 -3.0295 1.3038 -5.5775 -2.9384 1.7150 -3.4852 -4.1361 1.9531 -1.5819 0.3996 -1.2166 1.7735 2.1157 -0.7755 -1.7608 -0.9189 -0.5062 0.2644 2.0189 -0.9644 3.7763 0.5950 -0.9441 2.9662 4.2968 -0.6337 -3.5225 -1.9800 0.8414 -4.8172 -4.1072 2.1453 3.6635 5.2125 -1.5956 -5.5217 -5.1928 2.8778
-1.5214 -0.3721 -2.8408 3.8019 5.5676 -2.0214 4.2173 5.0714 0.0697 2.7674 6.6162 -0.4203 -6.5573 -5.4233 2.3029 -6.2409 -4.2952 4.1415 -4.7613 -5.7577 3.5020 -0.7272 -1.9251 -0.2299 0.0090 2.3918 -2.5981 1.1420 4.4730 -0.0779 2.9627 0.9343 -1.9122 0.0810 0.5251 -1.2214 2.3888 3.2911 -1.6293 -2.8521 -0.9649 -0.0415 6.3215 -0.5688 0.2852 5.7772 0.6038 0.6567 5.7115 -1.3431 -0.7820 4.6035 1.1087 -0.0308 4.5976 -0.8927 -1.3899 -3.3525 -3.3004 0.4616 -4.3915 -1.4671 1.6564 -3.9957 -4.2038 1.2214 -5.1142 -2.4375 2.4535 -1.2815 0.1024 -1.4249 2.0040 1.9352 -1.2816 -1.5466 -1.0524 -0.4959 0.5985 1.6729 -1.7958 4.0199 0.3917 -1.0097 2.1356 4.3593 -0.7923 -3.5069 -1.8795 0.7317 -4.9066 -3.7544 2.2658 3.2267 5.3933 -0.8022 -5.6106 -4.8003 3.0493
-2.1103 0.5552 -1.2743 3.2723 6.0098 -3.7725 4.7082 5.1917 -2.3534 2.9827 6.3217 -1.6394 -5.4494 -6.0943 0.3308 -6.5121 -5.5271 2.1420 -4.5368 -6.4327 2.2807 -0.3616 -0.9907 1.2519 0.0917 3.3454 0.1577 2.1604 3.5728 -3.4961 2.9856 1.9619 0.3230 0.0795 1.1002 -0.4199 2.3897 3.7212 -1.1967 -2.6330 -0.5416 1.3781 5.0173 -1.7839 0.3230 3.8147 -1.6937 0.9191 5.5390 -0.6577 -0.4309 3.0738 -0.4471 0.8677 4.8371 0.4868 -0.5075 -2.9459 -2.8033 0.4914 -4.2689 -1.9450 2.3277 -3.5852 -3.9865 0.5446 -4.9676 -3.2166 2.3741 -1.2916 0.8470 -0.0374 2.0767 2.3557 -0.8246 -1.3443 -0.3414 0.9057 0.6487 2.3568 -0.3115 3.5592 0.6003 0.1766 2.5906 4.1347 -2.4940 -3.2751 -1.7506 1.4421 -4.6479 -4.2052 1.5173 3.3843 5.4080 -2.5601 -5.2820 -5.5520 1.5648
-1.3031 -0.5188 -2.7466 2.5170 6.2619 -1.0636 4.0266 4.9880 -1.9874 4.4378 5.9550 -0.0810 -6.2061 -5.9417 2.5414 -7.1129 -4.2050 3.4966 -5.3490 -5.1304 4.3728 -0.7666 -2.0884 -0.1119 -0.3294 2.5979 -1.6848 3.1570 3.8878 1.0949 2.6539 1.3076 -1.9638 0.0030 0.4406 -0.9199 2.0512 3.4111 -0.8911 -2.9280 -1.2064 -0.0150 6.5053 -0.3176 -1.0278 5.5551 -1.1307 -1.5225 6.2070 1.0824 -0.7909 4.2297 -0.6073 -1.8132 4.9811 1.5639 -1.0570 -5.0162 -2.2602 0.5589 -2.9635 -2.9038 1.6633 -5.7268 -3.0836 1.3505 -3.7252 -3.8107 2.4999 -1.2994 -0.0604 -1.3049 1.8616 1.9657 -0.8418 -1.6017 -1.2430 -0.4196 0.3957 1.7410 -1.1852 3.9363 0.6803 -1.5490 2.9015 4.1342 -0.0797 -3.5743 -2.1687 0.7151 -5.0630 -3.8863 2.3706 3.4677 5.3288 -0.7979 -5.9222 -4.7835 3.1909
-2.2369 1.1626 -1.4036 2.8805 5.7508 -2.8780 4.0094 4.9656 -1.1877 1.9044 5.4884 -0.9500 -5.9569 -5.7572 0.8673 -6.4456 -5.0229 2.8590 -4.5094 -5.9458 2.4874 -0.8785 -0.4909 1.4070 0.4443 -0.2534 -1.6494 2.4633 3.1311 -3.3529 2.8214 0.8726 0.1943 -0.1121 1.5131 -0.2411 2.0704 2.7784 -1.0980 -3.1288 -0.0578 1.0435 6.8719 -0.4158 -0.2423 5.8887 -1.3337 -0.2540 6.5505 0.9927 -0.0962 4.5045 -0.9135 -0.1339 5.2680 1.3838 0.0069 -4.9402 -1.3892 1.8945 -3.1883 -2.3886 0.5509 -5.4905 -2.5960 2.1170 -3.7669 -3.6893 0.8125 -1.5289 1.3106 -0.0777 2.1397 1.3349 -1.0763 -1.7718 0.1411 0.8484 0.7327 0.7817 -1.0533 4.2040 0.3943 -0.0439 2.4287 3.5288 -2.1931 -3.7227 -1.2871 1.1100 -4.8630 -3.7982 1.5864 2.8003 4.9268 -1.8024 -5.4422 -5.1178 1.9488
-0.7715 -1.4952 -4.0973 1.8039 5.4109 1.4089 3.3547 3.8942 1.6094 1.3327 3.4952 2.3277 -5.5418 -1.6279 4.4021 -4.0426 -3.1512 4.8074 -5.8575 -3.6758 3.7226 -0.8894 -2.9142 -1.5612 -0.6935 1.6397 -1.3948 1.4945 4.2581 -0.9973 2.6008 0.1717 -0.9324 0.2502 -0.2763 -2.2679 1.5805 2.1561 -0.0234 -2.6217 -1.4027 -1.1477 6.6387 0.1623 -2.3454 6.2675 1.0876 -1.4427 5.6549 -0.7604 -2.8833 4.8910 1.1416 -0.9842 4.3728 -0.6908 -2.4807 -4.4087 -1.2301 0.4435 -2.4223 -2.5034 0.9756 -4.9671 -1.5504 1.6252 -3.0255 -2.8518 2.2480 -0.9885 -0.8243 -2.7624 1.7070 1.3622 -1.2312 -1.4532 -1.8406 -1.7496 0.2929 0.9351 -1.6055 3.9709 0.3035 -1.4972 1.6825 3.5314 -0.0260 -3.0888 -1.7330 0.0959 -4.2476 -2.3897 2.5736 2.0404 4.0759 1.3250 -4.9160 -2.7076 3.8654
-2.2233 1.1295 -1.3459 2.8428 5.7465 -2.7455 4.0031 4.8769 -1.1183 1.9028 5.3826 -0.8156 -5.7596 -5.7883 0.7049 -6.9099 -5.0497 2.3968 -4.9343 -5.9145 2.7196 -0.8425 -0.7399 1.2646 0.4410 -0.2951 -1.6996 2.4120 3.1508 -3.3429 2.8958 0.7892 0.1269 -0.0799 1.4000 -0.1918 2.0497 2.7057 -1.0958 -3.0826 -0.1443 1.1450 7.0655 0.0369 -0.4671 6.1925 -0.9791 -0.5904 6.5879 1.3702 -0.1458 4.7716 -0.7389 -0.4152 5.2716 1.5947 0.0121 -3.3130 -2.5026 0.5831 -4.7364 -1.4281 2.2250 -3.9181 -3.6846 0.7857 -5.4114 -2.6979 2.4187 -1.4987 1.2047 -0.0226 2.1506 1.2664 -1.1026 -1.7383 -0.0141 0.8401 0.7481 0.7040 -1.0525 4.3254 0.5022 -0.1521 2.4026 3.4934 -2.1657 -3.7188 -1.3363 1.3510 -5.0253 -3.7858 1.7246 2.7836 4.8684 -1.7129 -5.6543 -5.1228 1.8845
-0.8040 -1.5649 -4.0850 1.9298 5.1151 1.7180 3.3615 3.4793 1.8536 1.2855 3.1707 2.4532 -5.5686 -1.5979 4.4212 -4.0629 -3.1125 4.8340 -5.8841 -3.6550 3.7694 -0.9165 -2.9402 -1.5127 -0.6959 1.6182 -1.4605 1.6357 4.1886 -0.7826 2.6488 0.1574 -1.1340 0.2300 -0.3328 -2.2705 1.5843 2.0066 -0.0004 -2.6537 -1.4230 -1.1368 6.6372 0.6408 -2.6094 5.7165 0.0624 -3.4017 6.2573 1.1341 -1.2980 4.3450 -0.0770 -2.9405 4.9853 1.0195 -0.8774 -4.4439 -1.2307 0.4547 -2.4611 -2.5053 0.9946 -5.0026 -1.5432 1.6389 -3.0644 -2.8456 2.2683 -1.0132 -0.8765 -2.7577 1.6978 1.3316 -1.2794 -1.4834 -1.8734 -1.7282 0.2846 0.8984 -1.6479 3.9848 0.4072 -1.7372 1.7463 3.3709 0.1265 -3.1246 -1.7387 0.1098 -4.2848 -2.3789 2.5925 2.0774 3.7774 1.5322 -4.9444 -2.6825 3.8928
-0.6469 -2.0878 -2.9972 2.1673 6.0784 0.4694 3.7919 4.6438 0.6875 1.9195 4.3490 1.7666 -6.5593 -4.4335 3.5054 -6.9239 -2.2959 3.6966 -5.3583 -3.2456 4.8769 -0.3246 -1.6665 0.3896 -0.4983 1.6903 -1.1164 1.5336 4.5053 -1.6210 2.9338 0.5289 -1.0008 0.4499 -0.2893 -1.8232 1.9189 2.6120 -0.3368 -2.3309 -2.2969 -0.6122 6.8314 0.4186 -2.8072 5.9945 1.4116 -3.1589 6.4297 -0.5343 -1.7886 4.6701 1.4942 -2.5647 5.2118 -0.4444 -1.2241 -3.9574 -3.6922 0.4754 -3.3295 -1.5528 1.4212 -4.8208 -3.9151 1.4828 -4.2419 -1.8082 2.5203 -0.7805 -1.0416 -1.9134 1.9154 1.5970 -1.3783 -1.0770 -1.7029 -0.5800 0.4969 1.0244 -1.3982 4.2783 0.5943 -1.6427 1.9152 3.9686 -0.5854 -3.1553 -2.4805 0.4622 -4.9566 -2.9495 2.5653 2.4434 4.7530 0.5807 -5.9404 -3.2324 3.6494
-1.5670 0.1084 -2.6912 1.1139 5.5724 -0.0866 3.0279 4.6763 0.4491 1.1696 3.8375 1.2268 -6.1762 -5.1884 2.8762 -7.1994 -3.3978 3.5795 -5.3261 -4.0099 4.5019 -1.1947 -0.1460 0.7640 1.4810 -0.0330 -3.3669 1.3367 3.8807 -2.1834 3.4544 0.2956 -0.8132 0.4319 0.0769 -1.3014 1.9587 2.1878 -0.7240 -2.8848 -1.1116 -0.5017 7.6972 0.6937 -1.1949 6.9977 1.7088 -0.6561 7.0043 -0.4859 -1.6809 5.5522 1.6164 -0.5467 5.6634 -0.5593 -1.6055 -3.0466 -2.7535 1.2775 -4.9609 -1.4491 0.5670 -3.7936 -3.4133 2.1791 -5.7711 -2.1765 1.5289 -0.8088 -0.6080 -1.5918 2.5471 1.2111 -1.6143 -1.6214 -0.5732 -0.3062 1.4342 0.3625 -2.2045 4.9041 0.5406 -1.0314 1.6635 3.4861 -1.0698 -3.6442 -1.7063 0.4657 -5.2115 -3.1132 2.3188 1.7424 4.3883 0.1247 -5.9738 -3.9180 3.3112
-2.2143 1.3469 -0.2985 3.0848 5.5096 -3.9838 4.5584 4.9011 -2.4995 2.7942 6.0316 -1.8911 -6.1931 -5.8446 0.2071 -7.0566 -5.3852 2.1499 -5.1789 -6.4850 2.0279 -0.6231 -1.5125 0.8788 0.2976 3.2772 0.5148 2.0276 3.0910 -3.4233 3.0940 1.8055 0.4788 0.1369 0.9946 0.1266 2.3912 3.4476 -1.1567 -2.7202 -0.7621 1.5586 6.2916 -0.8880 -0.4362 5.3895 -1.2356 0.4993 6.1613 0.3792 -1.1326 4.2735 -0.3526 0.7949 5.1296 1.1962 -0.8575 -3.3636 -2.8598 0.4695 -4.4469 -2.0640 2.4813 -4.1152 -3.9754 0.4713 -5.2744 -3.2569 2.4700 -1.1852 0.8421 0.6889 2.1008 2.1265 -0.6264 -1.4521 -0.6170 1.0116 0.7518 2.2336 0.0531 4.1219 0.7978 0.1122 2.4876 3.7526 -2.4982 -3.4986 -1.8873 1.5431 -5.1155 -4.1867 1.5088 3.2262 5.0428 -2.7159 -5.8810 -5.4632 1.4733
-0.7467 -2.0853 -3.8107 0.4057 3.5618 1.6830 2.5178 4.0953 1.5667 1.7985 2.8317 3.1903 -4.7813 -3.6117 4.3926 -6.2375 -2.2028 3.6012 -4.5336 -1.4765 4.7544 -3.3234 -0.8153 -2.4296 -0.3127 1.8374 -2.3059 2.4666 0.8619 1.4984 2.7190 1.6964 -2.3071 0.1868 -0.4254 -2.2978 1.4829 2.0247 -0.2570 -1.8058 -1.5704 -0.8335 6.8139 0.4555 -2.1753 6.1624 0.4674 -3.3524 6.1053 0.7869 -0.9531 4.7557 0.8279 -3.4003 4.8052 1.1251 -0.9993 -3.7810 -1.0265 0.5054 -2.2360 -2.7813 1.1242 -4.5098 -1.2344 1.6162 -3.0056 -2.9904 2.3347 -1.0040 -0.8397 -2.9994 1.7545 1.0763 -1.3154 -2.1765 -1.0691 -2.0660 0.4298 0.9035 -2.0157 4.0928 1.1282 -2.2679 1.9295 1.8633 1.0359 -2.6188 -1.8560 0.2267 -4.1077 -2.2553 2.5744 1.6635 3.0835 1.8629 -4.9095 -2.3867 3.8195
0.5826 1.2014 2.9905 1.6312 5.8511 -4.1575 3.5001 4.7645 -3.8839 2.7285 6.0401 -2.2893 -5.8856 -4.8429 -0.5535 -6.5006 -5.0769 1.5190 -4.7507 -6.1436 0.7786 0.1122 -1.4362 1.6986 1.0680 3.3770 0.9324 0.6377 3.4994 -3.2662 3.4392 1.8020 -0.5682 0.5047 1.1627 0.5387 2.1306 3.5719 -1.4952 -2.0458 -0.5847 1.9393 4.3408 -2.2897 0.2954 4.0859 -1.4428 1.3085 4.2386 -1.8274 -1.0780 3.7317 -0.0633 1.0272 3.8855 -0.5557 -1.3395 -2.8434 -2.2382 0.3603 -3.5889 -2.2163 2.6665 -3.6616 -3.2662 0.0744 -4.4755 -3.3241 2.3530 -0.2528 0.9514 1.7533 2.0358 2.2225 -0.9704 -0.6733 -0.4961 1.7680 1.1603 2.3505 0.2639 3.6177 0.3627 -0.2444 1.6117 3.9826 -2.7001 -2.7851 -1.7108 1.7144 -4.5328 -3.8203 1.1018 2.3650 5.1547 -3.2524 -5.4117 -4.9592 0.7148
1.3446 -1.4806 1.4704 2.0152 6.7701 -1.8507 3.2815 5.4492 -3.0313 3.5550 5.5855 -0.8708 -6.6228 -5.4402 2.5868 -6.8573 -4.7918 0.5197 -7.6646 -3.5812 2.1432 -1.3786 -1.4929 -0.4986 2.0423 1.7182 0.9296 0.4229 4.5854 -1.8003 2.5451 1.0404 -2.3450 0.6857 0.1915 -0.1665 2.2587 3.2530 -1.3150 -1.5896 -1.7720 1.8067 6.2207 -0.2802 -0.5749 6.0365 1.0347 -0.7877 5.2240 -1.2353 -1.0266 4.8255 1.4967 -1.4367 4.0869 -0.8038 -1.6025 -2.9600 -3.6607 2.4121 -3.9179 -1.6821 1.3846 -4.1591 -4.2707 2.4127 -5.2018 -2.3501 1.3646 0.2621 -0.5314 1.0062 1.6782 1.9326 -1.4607 -0.9753 -1.3188 0.6477 1.4931 1.3104 -0.0894 3.8625 0.6223 -1.7824 1.6326 4.4293 -1.6675 -2.8335 -2.3301 1.8452 -5.3240 -3.5995 1.8509 2.6168 5.5516 -1.8523 -6.6052 -4.3493 1.7787
-0.3398 -2.6526 -2.5522 1.3586 5.1379 0.1131 3.4960 4.7603 -0.1172 2.6144 4.8790 1.8741 -5.7896 -2.6146 4.6209 -5.6305 -4.6754 3.9237 -7.2708 -3.4171 3.2404 -0.6881 -1.0677 0.3990 -0.2416 1.5690 -2.3735 2.4259 2.2082 1.5256 2.8512 1.6782 -2.4472 0.5975 -0.5356 -1.8864 1.5479 2.5571 -0.5914 -2.5522 -1.8927 -0.7325 6.9772 0.7034 -1.8589 6.6068 1.9945 -1.9293 5.9762 -0.3441 -1.9522 5.2054 2.3391 -2.0882 4.6771 -0.0264 -2.0994 -2.8461 -2.6271 1.5771 -4.7265 -2.1596 0.1292 -3.6635 -2.9772 2.5839 -5.6118 -2.5632 1.2070 -0.6388 -1.2732 -2.0106 1.9173 1.3525 -1.2981 -1.2616 -1.3951 -0.6356 0.6310 0.8444 -1.9041 4.2734 1.3699 -2.1486 2.1481 2.9461 0.5858 -3.3936 -2.1681 0.3104 -5.1066 -2.9611 2.3902 2.4017 4.4242 0.6121 -5.9445 -3.4128 3.5329
-0.8774 -2.0017 -3.2623 1.7949 4.7990 1.0392 3.7085 4.6355 0.0036 3.6111 4.3930 2.1653 -5.5782 -4.7898 4.0897 -7.1538 -3.4192 3.4689 -5.6093 -2.7461 4.8463 -0.5551 -2.3905 -0.1933 -0.5517 1.5927 -1.0773 3.3604 1.7928 1.4894 2.4100 1.7232 -2.3899 0.3081 -0.3984 -1.8765 1.7953 2.3592 -0.1237 -2.7154 -1.5911 -0.5996 6.6298 1.4434 -3.0385 5.8825 0.3315 -3.1631 6.0036 2.7013 -2.6727 4.4494 0.3867 -2.9247 4.6802 2.7493 -2.4419 -4.8396 -2.3453 0.2757 -2.8425 -2.4156 1.6358 -5.5874 -2.7805 1.3089 -3.6397 -2.9134 2.7363 -0.9782 -1.0140 -2.1244 1.8536 1.2486 -1.0575 -1.3626 -1.7575 -0.8680 0.4068 0.8613 -1.3138 3.8770 1.5419 -2.5385 2.7548 2.6300 0.8273 -3.4038 -2.1641 0.4389 -4.9695 -3.0678 2.5975 2.9633 4.1070 1.0064 -5.8250 -3.5014 3.7364
0.8825 -1.9922 1.1402 0.0929 5.3948 0.6509 2.2229 4.9912 0.8703 0.7565 3.6347 1.7457 -7.0277 -3.8202 3.0056 -7.1359 -1.6477 3.0258 -5.8635 -2.6877 4.4586 -1.3146 0.0303 -0.5584 1.4542 -0.1708 -2.7710 0.5442 4.0628 -1.6694 3.7880 1.4430 -1.0045 1.3861 -0.2913 -0.4527 1.6069 2.3808 -0.4786 -1.7118 -2.2210 -0.1676 6.8147 -0.4677 -3.3764 6.1097 -1.2019 -2.4976 6.4979 0.9384 -3.5564 5.0525 -0.5805 -1.7155 5.5033 1.5058 -2.8492 -3.4156 -1.1865 1.2691 -3.3813 -3.5600 0.8202 -4.5269 -1.3143 2.0171 -4.5719 -3.7020 1.6427 0.5689 -1.4669 -0.2450 2.3596 1.6571 -1.4970 -0.9054 -1.0990 -0.3026 1.6652 0.3123 -1.6616 4.7265 0.7132 -1.9090 1.0205 3.6177 -0.6310 -2.8028 -2.3550 0.6551 -5.1333 -2.6223 2.2206 1.0201 4.4008 0.6549 -6.2825 -2.6957 3.1667
0.1477 -2.9343 -1.7754 1.2461 5.3093 0.1080 3.0794 5.1856 -1.0727 3.1759 5.6478 1.0536 -6.3380 -4.9167 3.5985 -7.6698 -3.3293 2.9259 -6.2255 -2.9363 4.5055 -0.7310 -1.2755 0.9884 -0.3164 1.3005 -1.2856 3.3607 2.9648 1.3212 2.7076 1.4822 -2.2670 0.8461 -0.6964 -1.1308 1.7873 2.6733 -0.3623 -2.4019 -2.1111 -0.4173 6.9439 1.1501 -2.6810 6.4516 1.8511 -1.6442 6.0421 0.4503 -3.5802 5.0176 1.9442 -1.4569 4.7135 0.5039 -3.3791 -3.0306 -2.8755 1.8232 -4.6698 -2.5035 0.0852 -3.9910 -3.1851 2.7116 -5.7059 -2.8752 1.0335 -0.2988 -1.5471 -1.3764 2.0750 1.3495 -0.8927 -1.1330 -1.6325 -0.1153 0.7320 0.6835 -1.1128 4.1784 1.2805 -2.2729 2.6369 3.4120 0.4367 -3.3800 -2.4749 0.4678 -5.3885 -3.1875 2.3050 2.5354 4.8800 0.1333 -6.3970 -3.5876 3.3250
1.1114 -3.0296 0.0894 1.0327 5.3797 -1.0679 3.0599 5.1572 -1.8487 2.7231 6.1688 0.0516 -7.3253 -2.4989 3.3093 -6.5595 -4.4779 3.8080 -7.7520 -4.1931 2.0087 -0.9155 -0.8360 1.5671 -0.1985 0.9662 -1.0221 3.1666 3.6746 1.0010 2.6586 1.2265 -2.1655 1.2091 -0.6237 -0.0903 1.7059 2.8222 -0.5849 -1.8311 -2.5466 0.2630 6.8961 1.1386 -2.7253 6.1777 2.1605 -3.2243 6.2332 0.0751 -1.9894 4.7443 2.2076 -3.0115 4.9025 0.1183 -1.7924 -3.2618 -2.5024 2.2374 -4.0760 -3.2336 0.0826 -4.4444 -2.7755 2.8117 -5.3510 -3.5529 0.7068 0.3522 -1.7733 -0.2714 2.1558 1.4556 -0.7533 -0.8491 -1.6428 0.6444 0.9120 0.6091 -0.6387 4.1351 1.2482 -2.2920 2.4659 3.8103 0.0028 -3.0768 -2.6969 0.8088 -5.5341 -3.3311 2.0232 2.3183 5.1209 -0.7124 -6.7856 -3.6251 2.7745
1.0955 -2.2778 1.3948 2.1963 5.7205 -1.1002 2.9504 4.9189 0.7815 0.8799 5.5735 0.6282 -6.5590 -2.2446 4.0158 -7.1685 -4.0711 3.0038 -7.4766 -2.1410 2.0407 -1.3609 -0.9376 -0.7482 0.8933 0.6782 1.0260 0.3620 3.3949 -1.0675 3.7461 0.7017 -0.8129 1.3449 -0.8952 -0.6186 2.3409 2.5745 -0.1880 -1.4910 -2.9698 0.3673 6.1283 1.1526 -4.3368 5.5545 -0.0390 -4.0892 5.9067 2.2658 -3.4320 4.7023 -0.2070 -2.9235 5.1103 2.1133 -2.3599 -3.1499 -1.8142 1.7387 -3.5652 -4.0004 0.7835 -4.3672 -1.8017 2.3109 -4.8709 -3.9933 1.4172 0.6763 -2.0421 -0.0401 2.3382 1.2723 -0.8325 -0.8254 -1.8807 -0.1705 1.4535 0.3473 -0.0157 4.4598 0.8373 -2.1094 1.4357 3.5674 -0.4950 -2.7452 -2.9422 0.9130 -5.2628 -2.9410 2.1607 1.8721 4.9322 -0.0434 -6.6042 -2.8517 2.8011
1.2047 -1.2413 2.2056 -0.3562 5.2267 -0.0733 1.7552 5.3678 -0.5998 1.1444 4.2746 1.1831 -7.0535 -3.8024 2.7309 -7.5516 -2.1742 1.3786 -6.9839 -1.7394 3.4370 -1.0090 -0.2678 -0.2385 1.5724 -0.6756 -2.1445 -0.1773 3.1124 -1.7725 3.8714 1.5399 -1.1124 1.7069 -0.1964 0.1228 1.6692 2.3698 -0.5801 -1.2185 -2.2514 0.9630 6.9469 -0.6423 -3.1502 6.2825 -1.2334 -2.1413 6.5667 0.6912 -3.5791 5.2046 -0.5263 -1.4707 5.5475 1.3329 -2.9778 -2.9649 -3.0517 2.4408 -3.4832 -1.6482 0.5424 -4.2708 -3.1410 2.7622 -4.8816 -1.7132 0.9076 0.9699 -1.2945 0.7111 2.3926 1.4814 -1.4768 -0.5198 -1.1667 0.4414 1.8354 0.0897 -1.2203 4.8142 0.6917 -1.8955 0.7020 3.2811 -0.9345 -2.5476 -2.2445 1.3030 -5.2744 -2.4397 1.9696 0.8088 4.5303 -0.1081 -6.7030 -2.5394 2.3764
0.9470 -3.4148 -0.3878 0.5688 3.1147 1.8859 1.0481 4.4758 0.2504 2.3466 4.3741 1.9945 -7.5496 -2.1127 2.6959 -6.2602 -2.1716 4.4485 -6.8737 -4.0287 3.4886 -0.7535 -0.6602 0.6845 0.2881 0.2573 -2.5086 3.4854 2.1739 0.9416 2.7099 1.6924 -2.7489 1.3415 -1.1071 -0.9570 1.7202 1.9683 -0.5561 -1.8425 -2.6011 -0.0106 6.8251 2.5158 -3.5673 6.1638 1.6339 -4.3383 6.1695 3.0991 -2.4099 4.7849 1.2942 -4.0327 4.8943 2.7795 -2.1251 -2.9920 -1.9776 2.0605 -4.0980 -3.1948 0.2885 -4.0985 -2.0216 2.8231 -5.2868 -3.2607 1.1195 0.3259 -2.1363 -0.9046 2.3279 1.0060 -1.4509 -0.7897 -1.6977 0.0285 1.2067 0.0324 -1.7258 4.1743 1.8311 -2.9602 2.3933 2.5297 0.5090 -2.9959 -2.5584 0.7256 -5.2917 -2.7039 2.3461 1.5922 3.6209 1.1530 -6.4816 -2.7519 3.2400
1.0858 -0.0814 3.6063 -1.1874 3.9779 -0.9938 -0.4441 2.7099 -2.6011 0.1984 4.7857 -2.4715 -7.2969 -2.1896 2.0838 -6.9075 -4.0031 0.9444 -6.9852 -2.0776 -0.0710 -0.8885 0.5679 1.2076 1.9417 -0.9948 -0.5652 1.6384 4.0955 -0.1135 3.3044 1.0336 -1.9926 1.8878 0.3002 1.3597 1.3429 1.9561 -0.9604 -1.0511 -1.6587 1.9091 7.3117 -0.4852 -2.0680 6.3374 -1.1445 -2.7200 6.9935 0.7147 -1.3143 4.9712 -0.6552 -2.6644 5.7272 1.1670 -1.2631 -3.3608 -0.8770 1.7568 -2.7779 -3.2028 1.4511 -4.6601 -1.1391 1.5392 -4.1887 -3.4934 1.2470 1.0320 -0.5420 2.1675 2.6168 1.3295 -0.6684 -0.4027 -0.4490 1.6929 2.1358 0.0674 0.0180 4.6660 0.4376 -1.9388 1.0723 3.2982 -0.8541 -2.3700 -1.9372 1.6633 -5.0998 -2.5016 1.2801 -0.0835 3.6868 -1.7278 -6.5592 -2.6958 1.0612
-2.0589 3.5469 0.7026 2.1140 -0.1866 -4.3963 3.4435 1.3780 -3.6755 1.3043 1.7653 -3.8896 -6.0189 -5.1953 0.1533 -4.8906 -5.6661 1.9568 -3.9331 -5.8153 0.0101 -2.7542 1.1969 -0.8115 0.7119 0.6247 2.0436 2.0549 -0.8259 -1.7853 2.7802 2.5907 0.6343 -0.2541 1.9802 0.4312 1.7657 1.3991 -1.2282 -2.9163 0.2429 1.3177 7.0461 2.4849 0.8897 6.4648 2.3623 -0.3174 6.2250 2.6212 2.0806 5.0175 2.3619 -0.4281 4.8840 2.6024 1.9794 -3.8699 -1.7474 2.2604 -3.4975 -1.5874 -0.1227 -4.3260 -3.0069 2.1334 -3.9951 -2.9424 -0.2625 -1.5484 2.1629 1.0386 2.0598 1.3323 0.1903 -2.4524 1.1501 0.3776 0.7728 1.2507 0.9878 4.2563 2.4429 0.6786 2.0061 0.3600 -2.0970 -3.4285 -1.0066 1.0894 -4.3749 -3.6423 0.8236 2.2130 0.8325 -3.5052 -4.8011 -5.0667 0.7407
0.6160 -2.9380 -3.0145 3.5861 2.6061 1.8203 2.1312 1.4081 2.9237 1.9416 3.5752 2.8662 -5.7438 -0.9573 4.0225 -4.8579 -2.7507 4.8841 -6.5455 -2.9232 3.5224 0.0783 -3.2370 -0.1519 -0.6393 0.9059 -2.0037 0.6283 3.2796 0.5607 2.9060 0.8076 -1.9660 0.7816 -0.9046 -1.7129 1.7043 1.2797 0.1145 -1.9874 -2.3405 -0.7829 5.4649 3.4960 -4.0798 5.3099 3.6460 -2.7522 4.7152 2.4728 -4.7871 4.4047 2.7760 -2.0255 3.8639 1.6756 -4.1157 -4.1632 -2.0912 0.1876 -2.2315 -2.4158 1.6054 -4.9875 -2.1164 1.2514 -3.1191 -2.4340 2.7532 -0.1223 -1.9268 -2.1690 1.6261 1.3191 -1.3321 -0.6284 -2.5766 -0.9065 0.4592 0.4367 -1.7159 3.6843 1.8485 -2.6817 1.4302 2.4023 0.8707 -2.7294 -2.2653 0.3643 -4.4504 -2.3086 2.5921 2.2667 2.4899 2.1147 -5.3928 -2.2393 3.7438
1.0470 -3.4232 -1.1658 1.2548 2.9574 2.8886 3.2202 2.4739 2.0881 1.8101 0.8789 2.5713 -6.5713 -1.4509 3.3862 -5.3949 -2.5954 4.8153 -6.4078 -3.6150 3.1815 -2.0275 -2.6340 -2.0280 0.3260 0.2798 -3.2626 0.6234 3.1217 0.2810 3.1944 0.9249 -2.1376 0.9796 -1.0299 -1.4587 1.7914 1.1713 -0.1638 -1.2939 -1.7204 -0.0117 5.5899 4.1720 -3.5324 5.1600 4.1793 -2.2580 5.2103 3.0883 -4.4215 4.3135 3.1062 -1.7741 4.4135 2.0999 -3.9770 -3.6961 -2.0221 0.3501 -2.1244 -2.0390 2.1819 -4.7290 -2.2195 1.1898 -3.2446 -2.2251 3.0941 0.3059 -2.2587 -1.7761 1.8004 1.2234 -1.6184 -1.1272 -2.2437 -1.2854 0.9217 0.1312 -2.1980 3.9234 2.1258 -2.6082 1.3635 2.2091 0.6374 -2.3303 -1.9778 0.8522 -4.5050 -2.3184 2.6262 1.9096 2.1238 2.0374 -5.7067 -2.4939 3.4961
0.3008 -2.9344 -3.2063 -0.3524 0.9132 2.2434 1.4606 1.8370 3.0296 0.9775 -0.2284 3.5337 -4.7031 -0.4861 4.3836 -4.5629 -2.6381 4.6933 -6.0293 -1.8358 3.3009 -2.4520 -1.5767 -2.3998 0.3703 1.3273 -2.6994 2.6268 -0.6187 1.4071 2.5362 2.3676 -1.1700 1.0150 -0.8471 -2.2001 1.2940 0.8362 0.1869 -1.0472 -1.7683 -0.5513 5.2509 3.5594 -4.2546 4.0655 4.1822 -4.1309 5.5762 2.4422 -3.3852 3.1212 3.7427 -3.1204 4.6982 2.0324 -2.4512 -3.1988 -1.0602 0.3836 -1.6433 -2.4224 1.6347 -4.0727 -1.0606 1.4057 -2.5737 -2.3973 2.7512 -0.1021 -1.5429 -2.7851 2.0776 0.9290 -1.0266 -1.3290 -1.6207 -1.8980 1.0628 0.5296 -2.0758 3.4101 2.6953 -2.3255 1.7311 0.2147 1.3338 -1.9527 -1.8069 0.4781 -3.7569 -1.7627 2.6414 0.9555 0.6819 2.5279 -4.7540 -1.6838 3.7452
0.8581 1.2286 3.9931 -1.5618 1.5458 -1.7632 -0.5148 2.2075 -3.5606 -1.3842 3.6699 -2.1996 -7.0089 -1.6589 0.1273 -6.2007 -3.5974 0.6966 -5.7428 -2.7602 -1.2635 -0.3065 -1.6676 3.4335 2.2989 -1.0685 0.6107 1.1604 3.6162 -1.2779 3.0913 0.4173 -1.6648 1.5202 0.8278 1.6978 0.9685 1.3191 -1.0487 -1.0852 -0.1167 1.8801 7.3073 -0.1847 -1.3106 6.5026 -1.2280 -1.5802 6.7349 1.1276 -1.0704 5.0669 -1.0351 -1.6445 5.4026 1.3076 -1.1298 -2.4331 -2.1028 1.4253 -3.3118 0.1370 1.1616 -3.5901 -2.6403 1.0033 -4.5486 -0.4430 0.6698 1.0878 0.1950 2.9189 2.3001 1.0616 -0.5452 -0.1671 -0.6404 2.7708 2.0585 0.1342 0.6285 4.5331 0.1782 -1.4138 0.5710 2.5604 -1.4859 -2.2961 -0.6586 1.5435 -4.6924 -1.7800 0.5997 -0.7154 2.4908 -2.2487 -5.9026 -2.4424 0.0468

>  <OB_ATOM_TYPES> (1eldA1)
C.3 F F F F F F O.2 O.2 O.2 C.3 N.am N.am N.am C.ar C.ar C.ar C.ar C.ar C.ar C.ar C.ar C.ar C.3 C.3 C.2 C.2 C.ar C.2 C.ar C.ar C.3 C.3

>  <ENSEMBLE_RMSD> (1eldA1)
0.000 1.336 1.435 1.466 1.496 1.577 1.627 1.681 1.734 1.760 1.857 1.874 1.900 1.970 2.154 2.158 2.189 2.243 2.282 2.293 2.368 2.402 2.414 2.418 2.466 2.485 2.487 2.705 2.720 2.741 2.831 2.885 2.890 2.992 3.063 3.111 3.113 3.146 3.251 3.289 3.473 3.501 3.523 3.845 3.921 3.927 3.942 4.029 4.250 4.309

$$$$
