
 OpenBabel03071213D

 22 22  0  0  0  0  0  0  0  0999 V2000
   -6.4390   13.8420   10.7250 C   0  0  0  0  0
   -4.7320   11.3130    5.1080 C   0  0  0  0  0
   -0.8160    8.4110    7.1810 C   0  0  0  0  0
   -9.5630   12.4310    7.2130 C   0  0  0  0  0
   -8.6890   14.6740    6.5110 C   0  0  0  0  0
    0.7630    7.8200   11.2270 O   0  0  0  0  0
    1.0430    7.1190    9.1350 O   0  0  0  0  0
   -9.6450   15.5450    9.3990 C   0  0  0  0  0
   -8.6060   15.0660   10.3840 C   0  0  0  0  0
  -10.1220   14.3850    8.5720 C   0  0  0  0  0
   -3.2480   10.1080    7.4610 C   0  0  0  0  0
   -4.4230   10.9350    7.5620 C   0  0  0  0  0
   -2.5810    9.6380    8.5230 C   0  0  0  0  0
   -6.2300   12.3870    6.8600 C   0  0  0  0  0
   -6.6480   12.6930    8.0930 C   0  0  0  0  0
   -0.7880    8.5700    9.6820 C   0  0  0  0  0
    0.4150    7.7740    9.9540 C   0  0  0  0  0
   -7.6080   14.1120    9.7940 C   0  0  0  0  0
   -5.1100   11.5100    6.5500 C   0  0  0  0  0
   -1.3610    8.8480    8.5040 C   0  0  0  0  0
   -7.7350   13.5520    8.5650 C   0  0  0  0  0
   -8.9870   13.7700    7.7090 C   0  0  0  0  0
  1 18  1  0  0  0
  2 19  1  0  0  0
  3 20  1  0  0  0
  4 22  1  0  0  0
  5 22  1  0  0  0
  6 17  1  0  0  0
  7 17  2  0  0  0
  8  9  1  0  0  0
  8 10  1  0  0  0
  9 18  1  0  0  0
 10 22  1  0  0  0
 11 12  1  0  0  0
 11 13  2  0  0  0
 12 19  2  0  0  0
 13 20  1  0  0  0
 14 15  2  0  0  0
 14 19  1  0  0  0
 15 21  1  0  0  0
 16 17  1  0  0  0
 16 20  2  0  0  0
 18 21  2  0  0  0
 21 22  1  0  0  0
M  END
>  <MOLID> (1epbA1)
1epbA1

>  <SMILES_CANONICAL> (1epbA1)
C/C(=C\C=C\C(=C\C(=O)O)\C)/C=C/C1=C(C)CCCC1(C)C	

>  <FINGERPRINT> (1epbA1)
0000000000000000000001000000000000000001000001000000000000100000000000000000000000000000000000000000000000000000000000000000000001000000000000000000000000000000000000000000000000000000000000010000000000000000000000000000000000000000000000000000010000000010000000010000000001000000000000000000000000010000000000000000000000000000000000000000000000000000010000000000000000000000000000000000000000000010100000000000000000100000000000100000000000000100000000000000000000000100000000000000000000001000000000000000110000000000000000000000000000000000000000000000000000000000001000000000001000001001001000001001000000000000000000000000000000000001000000000000000000000000000000000000000000000000000010100000000000000000010000001000000000000000000000000000000000000000000100100000000000100000000100000000000000000000000000000000000000000000000000000100000001000000000000001000000000000000000000000000000000000000000000000000000000000000000000000000000000000000000000000010010010000010000000000000000000000000000000000000000000000000

>  <MACCS166> (1epbA1)
000000000000000000000000000000000000000000000000010000000000000001000000010100000000000000000000001000000001000100110100001000000010000100111000011011000100101100111000

>  <OB_MW> (1epbA1)
300.209

>  <OB_logP> (1epbA1)
5.6026

>  <OB_PSA> (1epbA1)
37.3

>  <OB_MR> (1epbA1)
95.2818

>  <OB_ATOMIC_CHARGES> (1epbA1)
0.0260252619 0.0310265347 0.0312447592 0.0043488198 0.0043488198 -0.2405605485 -0.2405605485 0.0046536411 0.0217194408 0.0043590523 -0.0006419414 -0.00426627 -0.0040570476 -0.0045983459 -0.0052264021 0.0818837529 0.3876460239 -0.0478741738 -0.0218597849 -0.0152767398 -0.0306697798 0.0183354755

>  <MCT_HBD> (1epbA1)
1

>  <MCT_HBA> (1epbA1)
2

>  <ENSEMBLE_TOTAL> (1epbA1)
46

>  <ENSEMBLE_COORDS> (1epbA1)
-2.4506 1.6854 2.6637 1.1504 0.0772 -2.0550 3.1583 -4.4505 0.1413 -4.0009 1.4695 -1.9254 -2.6533 3.5253 -1.7514 6.8519 -2.3987 1.0843 6.0678 -4.4475 0.4457 -4.5928 4.1549 0.6662 -4.1890 3.2686 1.8220 -4.7980 3.3129 -0.5714 1.1110 -2.3402 -0.2577 0.0770 -1.3458 -0.3178 2.3429 -2.0782 0.1856 -1.0406 0.6789 -1.1003 -1.6797 1.0562 0.0075 4.6659 -2.4848 0.4653 5.9004 -3.2602 0.6563 -3.1130 2.2926 1.4707 0.0564 -0.2581 -1.1017 3.4484 -2.9941 0.2504 -2.7787 1.9756 0.2017 -3.5342 2.5609 -0.9801
-1.1543 3.2870 1.4269 0.3145 0.0844 -2.4203 5.1332 -2.1961 -1.7448 -4.4957 0.3689 -0.6316 -4.4234 2.4571 -1.9250 5.4083 -5.1213 1.9043 3.6544 -3.6865 2.1788 -4.9091 3.8481 0.8221 -3.5802 3.8534 1.5433 -5.2566 2.4418 0.3905 2.3840 -1.3368 -0.8319 1.2403 -0.6799 -0.2545 3.2999 -1.9285 -0.0625 -0.8232 0.5807 -0.2368 -1.7175 1.4168 -0.7796 5.0764 -3.5963 0.2357 4.5991 -4.1035 1.5329 -2.5221 3.0175 0.8939 0.2882 -0.0252 -0.9338 4.4711 -2.6469 -0.4894 -2.7820 2.1094 -0.0709 -4.2054 1.8559 -0.5476
-1.7840 3.2289 2.3244 1.3728 0.7588 -0.3743 3.9635 -3.8547 -1.3903 -4.1859 0.5830 -0.9605 -3.5157 2.6484 -2.1142 5.7089 -4.8504 0.6438 6.5142 -3.1082 1.8716 -4.9549 4.0424 0.3378 -4.0477 3.9094 1.5381 -5.1640 2.6853 -0.2901 1.5625 -2.1047 -1.2707 0.3406 -1.3452 -1.1953 2.3393 -2.3534 -0.2118 -1.0977 0.5542 -0.7799 -1.4461 1.5480 0.0416 4.3465 -2.9714 0.9165 5.6476 -3.6088 1.1709 -2.8383 3.0674 1.2796 0.2071 -0.0690 -0.8040 3.6033 -3.0419 -0.1953 -2.7138 2.2312 0.2248 -3.8582 2.0506 -0.7626
-1.5011 3.2424 1.6932 -0.0942 -1.1522 -1.1204 5.1424 -2.2218 -1.0189 -4.7808 0.3762 -0.4231 -4.1427 2.0224 -2.1350 4.8801 -5.3333 1.9784 5.9921 -4.8215 0.0495 -4.8882 4.1128 0.1267 -3.7840 4.0860 1.1588 -5.3818 2.7072 -0.1224 2.7754 -0.4500 -0.5983 1.6599 0.4363 -0.3769 2.9869 -1.5631 0.1095 -0.6369 1.2048 -0.5004 -1.9168 0.9893 -0.1697 4.0863 -3.5510 0.8084 5.1148 -4.6014 0.8647 -2.7484 3.0377 0.9010 0.3681 0.1763 -0.6286 4.0811 -2.4921 -0.0092 -2.9363 2.0032 0.0541 -4.2758 1.7917 -0.6417
-1.8985 3.4160 2.2751 1.3581 0.8274 0.0757 4.3477 -3.3519 -1.5742 -4.0692 0.4742 -0.9538 -3.5951 2.5920 -2.1092 6.5078 -3.4249 0.5933 5.5262 -4.9849 1.9401 -5.1495 3.8803 0.2818 -4.1975 3.9143 1.4544 -5.2309 2.4781 -0.2730 1.8323 -1.7526 -1.3695 0.5580 -1.0851 -1.2866 2.4045 -2.3610 -0.3260 -1.0412 0.6110 -0.6521 -1.4403 1.6634 0.0667 4.2109 -3.2913 0.9182 5.4532 -4.0331 1.1785 -2.9363 3.1381 1.2380 0.3017 0.0750 -0.6633 3.6883 -3.0124 -0.2827 -2.7530 2.2620 0.2251 -3.8771 1.9655 -0.7565
-1.8718 1.0232 2.6028 -0.6561 -1.5520 -2.9530 4.3894 -3.2627 -1.9030 -4.0886 1.6976 -1.6661 -2.4255 3.5014 -1.4509 5.2973 -3.4067 2.6923 3.9050 -1.6585 2.2264 -3.8807 4.0169 1.3089 -3.4498 2.9262 2.2619 -4.3876 3.4003 0.0264 1.8183 -1.8501 -1.2708 0.7829 -0.8866 -1.0407 2.8853 -1.8778 -0.4716 -1.3014 0.3012 -1.4455 -1.5975 0.6932 -0.2051 4.7875 -3.0803 0.4910 4.5725 -2.6136 1.8715 -2.6025 1.8761 1.6182 -0.3432 -0.7360 -1.7480 4.0043 -2.7734 -0.5504 -2.5117 1.7035 0.2819 -3.3261 2.5579 -0.6761
-1.7435 4.1265 1.4976 1.1079 1.2779 -1.7405 4.8626 -2.2765 -0.8934 -4.0620 0.2040 -0.2451 -4.0775 1.9228 -2.0082 6.4844 -4.1006 0.4619 5.4676 -5.7241 1.6866 -5.3392 3.7199 0.2647 -4.2250 4.1016 1.2114 -5.3533 2.2223 0.0741 2.1402 -1.2330 -0.4721 0.7841 -0.7761 -0.3688 2.5346 -2.4120 0.0155 -1.0831 0.7070 -0.6809 -1.4874 1.9193 -0.2968 4.1680 -3.9351 0.8491 5.4160 -4.6903 1.0362 -2.9216 3.4456 0.8835 0.2987 0.3574 -0.8909 3.8855 -2.9128 0.0335 -2.8131 2.3584 0.0905 -4.0441 1.6979 -0.5079
-3.1313 0.9443 2.5183 -0.9206 -1.7101 -2.3318 3.8222 -3.7328 -0.8848 -3.6909 2.2314 -2.1473 -1.9685 3.7086 -1.1879 6.6728 -3.3324 0.1886 6.0575 -3.9555 2.3012 -4.2285 4.2610 0.9871 -4.3342 3.0355 1.8654 -4.3127 3.8541 -0.4649 1.6081 -1.7738 -0.6809 0.6589 -0.7043 -0.6835 2.7467 -1.6495 0.0018 -1.3757 0.4594 -1.2347 -1.9644 0.7765 -0.0801 4.7231 -2.4393 1.0522 5.8487 -3.3565 1.2590 -3.4163 1.9361 1.4390 -0.4877 -0.6624 -1.3687 3.7839 -2.6330 0.1195 -2.8864 1.8550 0.2005 -3.2047 2.8880 -0.8681
-0.5034 2.3351 1.1908 -0.3185 0.2902 -3.6869 3.1455 -1.5003 1.7805 -4.5603 0.5629 -0.8988 -4.4112 2.9527 -1.4517 5.8991 -4.7508 1.1555 4.7177 -3.7561 2.8396 -4.1733 3.3613 1.6299 -2.7548 3.0046 2.0112 -4.8041 2.2201 0.8658 1.9093 -0.8759 -0.8181 1.3067 -0.5517 -2.0797 2.8214 -1.8434 -0.6885 -0.7274 0.5144 -1.2273 -1.7402 1.3815 -1.3288 4.2149 -3.3633 0.5121 4.9473 -3.9297 1.6565 -1.9691 2.3675 0.9100 0.1473 0.0872 -2.2866 3.4279 -2.2819 0.5438 -2.5336 1.8710 -0.2123 -4.0413 1.9048 -0.4169
-3.0492 1.9470 2.7897 -0.2465 -1.3616 0.8581 4.0855 -3.6731 -1.5465 -3.8290 1.4766 -1.9750 -2.3610 3.4339 -1.7179 6.3164 -3.2675 2.1711 6.2447 -4.5116 0.2575 -4.6096 4.3948 0.2908 -4.4703 3.5813 1.5562 -4.6768 3.4678 -0.8995 1.7794 -1.7990 -1.3256 0.7564 -0.7850 -1.3385 2.7893 -1.8219 -0.4508 -1.2149 0.4204 -0.6235 -1.8625 1.0664 0.3497 4.6501 -2.7537 0.7059 5.8093 -3.6232 0.9674 -3.4408 2.5000 1.4594 -0.1824 -0.5690 -0.4051 3.8674 -2.7741 -0.3795 -2.9268 2.0524 0.2924 -3.4283 2.5991 -1.0365
-1.0420 0.8033 1.6286 -1.2240 -0.9449 -3.4528 3.5753 -0.8668 1.2594 -4.8992 1.7187 -1.1644 -3.3224 3.5497 -1.6015 5.2561 -4.6749 2.0682 5.9369 -2.4980 2.2055 -3.3635 3.8491 1.5516 -2.5666 2.7054 2.1351 -4.4005 3.3080 0.5961 1.6887 -1.1718 -0.9933 0.7558 -1.3160 -2.0753 2.5773 -2.1192 -0.6802 -0.8628 0.4031 -1.3873 -2.1440 0.6732 -1.1092 4.2231 -3.2019 0.6667 5.2093 -3.3609 1.7479 -2.1038 1.7167 1.1134 -0.3968 -0.6541 -2.2479 3.4881 -2.1069 0.4381 -2.6127 1.6481 -0.1358 -3.7723 2.5400 -0.5630
-2.1533 2.2500 2.5980 -0.7802 -2.2190 -1.4045 5.4167 -1.1254 0.6544 -4.2903 1.1656 -1.6511 -2.7264 3.0192 -2.0676 4.8614 -5.4109 0.2721 6.4855 -3.8085 0.3951 -4.3180 4.3991 0.3014 -3.8885 3.7400 1.5923 -4.7402 3.3424 -0.6924 1.8805 -1.4349 -0.2723 0.7374 -0.5771 -0.3065 2.9717 -1.1347 0.4363 -1.5471 0.0538 -0.8434 -1.7312 1.0021 0.0755 4.1400 -3.2566 0.3596 5.3145 -4.1389 0.3531 -2.9406 2.6047 1.3795 -0.4644 -0.8943 -0.8032 4.1766 -1.9223 0.4513 -2.7907 1.9768 0.1942 -3.6134 2.3692 -1.0217
-2.0648 1.9258 2.8177 -0.0964 -1.7269 0.1527 4.5767 -3.2974 -2.2824 -4.1144 1.0416 -1.4761 -2.6651 3.0002 -1.8228 5.2288 -3.6178 2.3554 3.5613 -2.1304 1.8948 -4.2759 4.1717 0.6356 -3.7868 3.4717 1.8826 -4.6625 3.1437 -0.4017 2.1534 -1.5735 -1.8192 1.1640 -0.5451 -1.6312 3.0824 -1.8433 -0.9005 -0.8454 0.4851 -0.7791 -1.6792 0.7406 0.2332 4.7223 -3.3239 0.1473 4.4058 -2.9299 1.5322 -2.8061 2.3767 1.6032 0.1247 -0.5862 -0.7849 4.0999 -2.8559 -0.9423 -2.6309 1.8252 0.3830 -3.4918 2.2478 -0.7977
-2.9073 1.7240 2.4162 -1.0711 -1.6605 -0.8721 3.6248 -3.9400 -0.7942 -4.2945 2.0417 -2.2074 -2.3432 3.5190 -2.0013 5.9859 -4.9676 0.6811 7.4398 -3.2413 0.3311 -5.2616 3.8541 0.3436 -4.3524 3.5581 1.5160 -4.4246 4.1082 -0.8892 1.7657 -1.8054 -0.0023 0.9385 -0.6518 0.1842 3.0318 -1.8228 0.4150 -1.0234 0.6992 0.0015 -2.2906 0.9339 -0.3449 5.1616 -2.7987 0.8116 6.3139 -3.6657 0.5394 -3.3955 2.4526 1.2096 -0.3335 -0.5441 -0.2136 3.9870 -2.8685 0.1758 -3.0281 2.1434 -0.0505 -3.5234 2.9323 -1.2495
-0.4643 2.5866 1.7549 0.6641 0.7366 -3.8079 1.1971 -2.3402 2.1386 -3.6551 0.0626 -0.8977 -3.7658 2.3796 -1.7128 5.5884 -3.9579 1.6904 4.9170 -2.9236 -0.2280 -4.2464 3.0413 1.3441 -2.9189 2.9038 2.0539 -4.5262 1.7890 0.5479 1.3460 -1.0988 -0.5451 1.4386 -0.5092 -1.8483 2.3807 -1.7170 0.0165 -0.7849 0.5362 -1.8067 -0.9011 1.4380 -0.8296 3.4653 -3.1123 1.6921 4.7070 -3.2873 0.9160 -1.8256 2.3764 1.1803 0.4818 0.2295 -2.4220 2.4056 -2.4111 1.2718 -2.0450 1.7635 -0.0028 -3.4583 1.5144 -0.5057
-1.8931 3.9920 1.8197 1.2851 0.7534 0.6356 4.6544 -2.7683 -1.5056 -4.0620 0.2978 -0.5055 -3.7990 2.1015 -2.1520 5.9153 -4.8924 -0.0840 5.9791 -4.4154 2.1448 -5.2718 3.8416 0.0014 -4.2528 4.1976 1.0579 -5.2966 2.3461 -0.2050 1.9810 -1.5082 -1.2267 0.6800 -0.9007 -1.1120 2.5052 -2.3079 -0.2917 -1.0528 0.5582 -0.2663 -1.4534 1.7992 0.0263 4.1888 -3.5949 0.8095 5.4572 -4.3088 1.0451 -2.9644 3.4448 0.9344 0.3239 0.1141 -0.3093 3.8128 -2.9164 -0.2836 -2.7883 2.3656 0.1380 -3.9485 1.8011 -0.6711
-2.3287 3.6859 2.3028 1.3350 1.0631 0.8142 3.5022 -4.8730 -1.1247 -3.8779 0.5310 -1.0727 -3.0406 2.5250 -2.2528 6.5013 -2.8241 1.2303 5.9370 -4.9209 0.5192 -5.5374 3.0723 0.4401 -4.5012 3.9586 1.0905 -5.0683 2.6572 -0.9340 2.0152 -1.5364 -0.3867 0.7605 -0.8816 -0.6166 2.2570 -2.7975 -0.7508 -0.8368 0.9133 -0.4272 -1.4975 1.7413 0.3837 4.4320 -3.0504 0.3130 5.6832 -3.7387 0.6603 -3.1708 3.2843 1.1379 0.4196 0.2976 -0.0822 3.4705 -3.5289 -0.4858 -2.7785 2.3906 0.2070 -3.6758 2.0312 -0.9655
-3.8748 1.3375 2.4919 -0.8747 -1.7535 0.4757 3.6852 -4.0401 -1.0113 -3.2725 2.0802 -2.2848 -1.8361 3.6990 -1.1087 6.9917 -2.8955 1.5481 6.1809 -4.6509 0.3325 -4.5293 4.4516 0.3740 -4.8345 3.3459 1.3586 -4.2873 3.8590 -0.9943 1.7363 -1.8311 -0.9333 0.8392 -0.7123 -0.9886 2.8930 -1.7761 -0.2707 -1.2121 0.4847 -0.5931 -2.1041 0.9098 0.3026 4.9421 -2.6005 0.6016 6.0738 -3.5227 0.7770 -3.8710 2.2058 1.2770 -0.3495 -0.6480 -0.3769 3.8818 -2.8161 -0.1846 -3.0652 1.9875 0.2161 -3.1130 2.8857 -1.0086
0.0637 1.6902 1.6901 0.1349 1.0690 -4.3740 1.3990 -2.9697 0.8554 -3.7428 0.2761 -1.0056 -3.6474 2.7308 -1.1219 5.4632 -2.6245 2.3627 3.4269 -3.4891 2.9214 -3.6656 2.5666 2.0019 -2.2644 2.1902 2.4276 -4.1779 1.5748 0.9844 1.2295 -1.1664 -1.4796 1.1352 -0.4208 -2.7044 2.3879 -1.4401 -0.8771 -0.9894 0.7298 -2.2006 -0.8482 1.2544 -0.9818 3.7587 -2.1621 0.9290 4.1433 -2.8511 2.1718 -1.3742 1.7787 1.2987 0.1437 0.4181 -3.0361 2.5547 -2.1801 0.3477 -1.8234 1.4995 0.0560 -3.3076 1.5261 -0.2657
-3.6373 0.9490 2.4977 -0.9060 -2.0758 -0.1207 3.5773 -4.3303 -1.6673 -2.9799 2.2312 -2.1733 -1.4821 3.6122 -0.7911 6.2863 -2.9631 1.8829 4.7056 -1.3617 1.4940 -4.1344 4.3238 0.7578 -4.4768 3.1347 1.6256 -3.9248 3.8785 -0.6705 1.7866 -2.0311 -1.3982 0.9345 -0.8844 -1.2925 2.8487 -2.1829 -0.6052 -0.9809 0.3843 -0.6296 -2.0301 0.6053 0.1626 4.8564 -3.3649 0.1565 5.2286 -2.4293 1.2303 -3.5844 1.9578 1.3980 -0.2683 -0.8619 -0.7076 3.7921 -3.2650 -0.6478 -2.8112 1.8147 0.3013 -2.7998 2.8589 -0.8029
-2.0648 3.6392 2.1155 1.3423 0.9457 0.1559 4.1756 -2.9711 2.1418 -4.0792 0.4135 -0.9301 -3.3156 2.3175 -2.2909 5.7965 -4.6545 -1.4824 6.4092 -4.0792 0.6425 -5.0585 3.9912 -0.2292 -4.3036 4.0418 1.0797 -5.1720 2.5591 -0.6960 1.7647 -1.9237 -0.4876 0.4823 -1.2850 -0.5222 2.3494 -2.3245 0.6442 -1.0670 0.5436 -0.4225 -1.4731 1.6860 0.1309 4.3156 -3.3780 -0.3212 5.6150 -4.0620 -0.2801 -3.0385 3.2470 1.0533 0.2612 0.0118 -0.2756 3.6617 -2.9065 0.7466 -2.7898 2.2809 0.1442 -3.8114 1.9073 -0.9168
-1.5161 4.4519 0.3568 0.4161 1.5332 -3.5464 2.2181 -2.4251 1.5689 -2.5744 -0.2986 0.6504 -4.0562 0.6755 -1.0576 3.6949 -4.9656 1.7870 5.8460 -4.2120 1.6475 -4.7605 2.7008 1.3124 -3.5759 3.6202 1.5032 -4.2925 1.2649 1.3168 1.7285 -0.8332 -0.8636 1.5515 0.0184 -2.0024 2.8418 -1.5489 -0.6989 -0.6926 0.8139 -1.4384 -1.2270 1.9488 -0.9862 4.1654 -3.2786 0.2587 4.6704 -4.1563 1.3219 -2.4475 3.3056 0.5755 0.4754 0.7647 -2.2733 3.1157 -2.4580 0.3800 -2.2990 2.1069 -0.0261 -3.2821 0.9714 0.2137
-1.5093 4.1745 1.2345 1.3516 0.2109 0.8618 5.3294 -2.1667 -1.8283 -3.7740 -0.0549 0.5906 -3.7356 1.0279 -1.6198 4.4937 -4.5218 2.1207 2.5132 -3.8934 1.1749 -5.0449 3.4457 -0.0562 -3.9623 4.0970 0.7737 -5.0704 1.9603 0.2190 2.6225 -0.8972 -1.6051 1.2769 -0.3895 -1.5472 2.9969 -1.9844 -0.9287 -0.6722 0.6385 -0.5622 -1.2272 1.4652 0.3286 4.6281 -3.4891 0.0890 3.7295 -3.9580 1.1585 -2.6567 3.3685 0.7231 0.6826 0.1476 -0.4718 4.3069 -2.5601 -0.8201 -2.5315 2.0960 0.2900 -3.7471 1.2832 -0.1248
-3.6794 1.2416 2.5817 -0.2195 -1.5388 1.1249 3.4099 -4.7521 -1.4662 -2.9430 1.9924 -2.1561 -1.5115 3.6104 -0.9750 4.4209 -1.8903 1.6494 6.4404 -1.7823 0.5874 -4.2159 4.3918 0.4687 -4.5370 3.2975 1.4598 -3.9611 3.7836 -0.8901 1.5041 -2.4699 -1.1188 0.6834 -1.2904 -1.1716 2.7985 -2.4133 -0.7983 -0.9487 0.3149 -0.4192 -1.8594 0.7782 0.4394 4.8605 -3.4626 0.0006 5.3339 -2.2767 0.7308 -3.5995 2.1340 1.3869 -0.1299 -0.8555 -0.1992 3.7181 -3.5144 -0.6969 -2.7732 1.9001 0.3437 -2.7916 2.8018 -0.8817
-0.3034 0.0370 1.3132 -1.4733 -0.9234 -3.8439 4.2045 -0.9341 -0.2866 -4.4744 1.5720 -0.6181 -2.8621 3.3713 -1.0438 3.0426 -2.7463 3.4804 4.9011 -2.0425 2.3558 -2.3697 3.1701 2.0805 -1.5757 1.9114 2.3439 -3.5827 2.8356 1.2455 1.9306 -1.3657 -2.1555 0.7632 -1.4100 -2.9931 1.8908 -1.7069 -0.8659 -0.6478 0.1877 -1.7687 -1.8342 0.3977 -1.1871 2.7447 -2.2132 1.2877 3.7094 -2.2880 2.3956 -1.3565 1.0761 1.1231 -0.3912 -0.7460 -2.8363 2.9552 -1.6464 0.0949 -2.0635 1.2310 -0.0173 -3.2077 2.2326 -0.1042
-1.6088 4.4564 0.4722 1.5453 2.3066 -2.3477 1.0270 -4.0991 -0.3948 -2.2096 -0.3603 0.7504 -3.6132 0.4059 -1.1158 5.0352 -4.0531 2.0419 4.5529 -1.9583 1.2774 -4.7815 2.3878 1.0561 -3.7549 3.4737 1.2840 -4.1307 1.0329 1.2032 1.6394 -1.3997 -1.4755 1.9152 -0.0617 -1.9127 2.3160 -1.9512 -0.4694 -0.0991 0.9625 -0.9938 -0.9208 1.9911 -0.7863 3.0634 -3.8204 0.9104 4.2746 -3.1378 1.4004 -2.4681 3.2391 0.5600 1.1277 1.0078 -1.7471 2.1959 -3.2870 0.0412 -2.1108 2.0461 0.0390 -2.9951 0.8187 0.2068
-3.7698 0.4732 2.1384 -2.0569 -2.5826 -1.3974 4.0991 0.0726 -0.9338 -2.5684 2.4551 -2.1621 -0.7078 2.8510 -0.6033 5.5959 -2.9737 2.2741 3.8851 -3.9187 1.0937 -2.9338 4.1074 1.2294 -3.6961 2.9574 1.8486 -2.8834 3.9532 -0.2733 1.5437 -1.3598 -1.2109 0.3332 -2.1042 -1.3969 2.5946 -1.8994 -0.5928 -1.1964 -0.3054 -0.7909 -2.3807 0.1373 -0.3658 4.7473 -1.7293 0.5625 4.6460 -2.9931 1.3113 -3.3167 1.6206 1.2974 -0.9105 -1.6524 -1.2017 3.8238 -1.2317 -0.2682 -2.6380 1.4671 0.1423 -2.2104 2.6553 -0.7005
-4.7111 0.9615 1.7109 -1.1941 -1.8656 -0.2442 3.4613 -4.1807 0.7580 -2.6139 2.5532 -2.3859 -1.5957 3.7892 -0.5190 7.4802 -2.9272 -0.0458 6.1874 -4.8091 -0.0866 -4.5919 4.4852 0.2000 -5.1966 3.2496 0.8289 -3.9572 4.1353 -1.1259 1.7066 -1.8190 0.3446 0.8904 -0.6385 0.3042 3.0380 -1.7461 0.3117 -1.1344 0.6281 0.0419 -2.4591 0.7417 -0.0873 5.2236 -2.6022 -0.0592 6.3054 -3.5977 -0.0506 -4.2960 2.0562 0.7859 -0.4201 -0.6219 0.0330 3.9589 -2.8512 0.3001 -3.2234 1.9701 -0.0277 -2.8584 3.0892 -0.9867
-2.4112 4.5319 -0.3399 0.8885 2.3466 -3.0523 1.8495 -3.6303 -0.2059 -1.6004 0.0150 1.2884 -3.3353 -0.1490 -0.4523 5.4162 -3.7416 2.1645 3.3776 -4.7559 1.9789 -4.7714 2.0585 1.3523 -4.0315 3.3625 1.1614 -3.7880 0.9636 1.6924 1.7390 -1.0612 -1.5853 1.6941 0.1718 -2.3134 2.7157 -1.3356 -0.7182 -0.3425 1.0475 -1.2896 -1.1731 2.0447 -0.9863 3.8565 -2.6491 0.9120 4.1445 -3.8470 1.7160 -2.8529 3.2336 0.2512 0.7685 1.1314 -2.1995 2.8465 -2.5505 0.0403 -2.2540 2.0555 -0.0223 -2.7362 0.7576 0.6075
-2.0233 4.3913 -0.4633 -0.0579 1.2775 -3.7711 4.9392 -2.9078 -0.5103 -1.5904 -0.1049 1.3454 -3.6321 -0.0862 -0.0253 2.1456 -3.6676 2.7119 4.3169 -4.0109 2.0903 -4.3328 2.4331 1.8373 -3.4309 3.5790 1.4376 -3.4994 1.1946 2.0692 1.9954 -0.8079 -1.3445 1.4881 -0.1051 -2.4847 3.0685 -1.5989 -1.3917 -0.4718 0.7781 -1.3443 -1.4453 1.6760 -1.1974 2.8051 -2.6745 0.7737 3.2171 -3.5247 1.8990 -2.5115 3.2163 0.3167 0.3629 0.6195 -2.5037 3.5613 -2.3895 -0.2934 -2.1863 1.9416 0.0181 -2.7183 0.7711 0.8303
-4.8254 0.4531 0.5817 -1.9398 -1.6104 -2.8936 2.9711 -1.3978 1.5793 -1.5723 3.3579 -1.5206 -0.5769 2.6932 0.6284 5.6623 -1.9165 1.9465 6.5525 -3.7148 0.8783 -3.3129 3.7548 1.8110 -4.3836 2.7392 1.4849 -2.5680 4.1280 0.5507 1.3184 -1.5797 -0.9179 0.2165 -1.8722 -1.7881 2.1618 -2.5217 -0.4868 -1.1740 0.0462 -1.1659 -2.3896 0.5377 -0.9164 4.4094 -2.9430 0.2362 5.6356 -2.9251 1.0506 -3.8962 1.6208 0.6195 -0.9123 -1.1620 -1.9100 3.2577 -2.2870 0.4193 -2.7472 1.6721 -0.0873 -1.8871 2.9271 -0.0998
-2.7487 3.8716 -2.0857 1.2844 1.4333 -1.7470 5.1542 -2.2143 -1.7155 -2.4438 1.5415 2.1851 -3.9329 0.2155 0.7494 3.9676 -3.5048 2.2437 4.0720 -5.6204 1.3906 -5.4955 2.9063 0.4199 -4.7220 3.7418 -0.5731 -4.5802 2.4557 1.5332 2.5325 -1.1212 -0.8301 1.2570 -0.6352 -0.3764 3.0813 -2.2162 -0.3008 -0.5820 0.9122 -0.1479 -1.5006 1.6895 -0.7271 4.9149 -3.7727 0.1425 4.2498 -4.4174 1.2873 -3.3707 3.1938 -0.9104 0.6621 0.5023 -0.7609 4.3741 -2.7822 -0.5806 -2.7596 2.2066 -0.2183 -3.4137 1.6144 1.0221
-1.3510 4.1800 0.3857 0.3694 2.0798 -3.7176 2.7688 -3.5516 -0.8352 -1.4854 -0.6955 0.6711 -3.5627 0.0374 -0.4222 3.0607 -2.4148 3.3510 3.2445 -4.2255 1.9717 -3.8854 1.8538 2.1025 -2.9684 3.0399 1.9096 -3.1103 0.5679 1.9369 1.8836 -1.1224 -2.2849 1.5770 0.0743 -3.0179 2.2596 -1.1037 -1.0041 -0.3610 0.7792 -1.7057 -0.9813 1.7802 -1.0834 2.6946 -2.0253 1.1410 3.0320 -3.0403 2.1513 -2.0308 2.9018 0.7536 0.5746 0.9331 -2.7890 2.5569 -2.2360 -0.1723 -1.8090 1.7396 0.1039 -2.4765 0.4481 0.5543
-4.7213 1.1018 -1.8132 -0.6397 -1.2794 -2.0046 4.0645 -3.4712 -2.1273 -1.3430 3.5408 0.6205 -2.2567 1.9232 2.2398 4.1524 -3.6781 2.2928 6.1548 -2.6361 1.9155 -4.4701 4.2620 0.2928 -5.1681 3.0993 -0.3758 -3.6406 3.7475 1.4458 2.1087 -1.6193 -0.9600 1.2006 -0.6280 -0.4664 3.2369 -1.9415 -0.3241 -0.8880 0.5267 -0.2734 -2.1346 0.8183 -0.6448 4.9489 -3.6428 0.1286 5.1620 -3.2232 1.5190 -4.2204 2.0002 -0.7312 -0.0551 -0.4648 -0.8995 4.1068 -3.0229 -0.7066 -3.0210 1.8413 -0.1333 -2.5772 2.7463 1.0052
-4.9590 0.8117 -0.4975 -1.3565 -0.7365 -3.5497 2.4172 -3.2104 1.4644 -0.9042 3.4691 -0.6168 -0.7319 2.0472 1.3842 4.9434 -2.7306 2.5106 6.6501 -2.4385 1.0358 -3.5562 3.2869 2.0731 -4.5770 2.6342 1.1689 -2.4148 3.8325 1.2467 1.0806 -1.8839 -0.8629 0.3026 -1.7028 -2.0522 2.3132 -2.3966 -0.8802 -1.0277 0.1810 -1.2342 -2.1807 0.8525 -1.2132 4.4216 -2.3181 0.2537 5.4551 -2.5184 1.2805 -3.9701 1.7232 0.1502 -0.6564 -0.7873 -2.2352 3.1151 -2.6007 0.2984 -2.6605 1.7415 -0.1746 -1.7038 2.7439 0.4501
-5.0245 0.9335 0.1222 -2.2952 -1.9308 -2.5848 3.9709 -0.7236 -0.3866 -0.7791 2.9823 -1.0432 -0.5039 2.0757 1.2282 4.9088 -3.3785 2.7635 6.1016 -2.2108 1.2026 -3.1032 3.7779 1.8253 -4.2786 3.0526 1.2120 -2.0206 3.9581 0.7876 1.3194 -1.5565 -1.4318 0.0744 -1.9921 -1.9980 2.1225 -2.3850 -0.7612 -1.2469 -0.0588 -1.2889 -2.3588 0.3661 -0.6891 3.8329 -2.9104 0.8093 5.0706 -2.7346 1.5846 -3.8841 1.8534 0.4108 -1.0955 -1.3450 -1.9213 3.3268 -2.0259 -0.0576 -2.6256 1.6242 -0.0214 -1.5118 2.6284 0.2378
-4.6821 1.9798 -1.7289 -1.1211 -0.4446 -3.6933 2.8329 -1.5667 1.6095 -0.5204 2.6907 0.7040 -1.8136 1.0486 1.9921 4.6306 -3.7249 2.5748 6.4330 -3.5708 1.1833 -4.0808 3.2082 1.8584 -4.6968 3.1203 0.4828 -2.5848 3.3769 1.7429 1.5831 -1.1565 -1.0824 0.7557 -1.1139 -2.2607 2.3827 -2.1848 -0.7836 -0.8292 0.5368 -1.4018 -2.0989 0.8944 -1.2091 4.2437 -3.1904 0.3388 5.2331 -3.4737 1.3920 -3.9291 2.2616 -0.4707 -0.3568 -0.3796 -2.4121 3.2183 -2.3285 0.3870 -2.6764 1.8090 -0.2420 -1.9230 2.2080 1.0189
-1.7216 4.2684 0.0727 0.4248 2.0776 -3.6682 2.7264 -3.5863 -0.7627 -1.2778 -0.5324 0.8852 -3.4062 -0.1650 -0.2926 4.1975 -3.6933 1.9002 2.4051 -3.1798 3.2209 -3.9782 1.8542 2.0296 -3.1949 3.1110 1.7253 -3.0607 0.6545 2.0036 1.8762 -1.1433 -2.2251 1.5953 0.0553 -2.9650 2.3167 -1.1206 -0.9656 -0.3073 0.8042 -1.6320 -1.0676 1.7795 -1.1380 2.7617 -2.0200 1.1833 3.0480 -3.0462 2.1917 -2.2386 2.9645 0.5855 0.6069 0.9300 -2.7365 2.5661 -2.2529 -0.1192 -1.8774 1.7738 0.0622 -2.3944 0.4671 0.6448
-1.7718 4.1571 -0.4897 -0.5887 0.6782 -4.1875 4.1316 -1.1631 0.2602 -1.0446 -0.3476 1.1995 -3.3152 -0.3082 0.2503 2.0288 -4.2315 2.5090 3.9996 -3.0764 2.4580 -3.6806 2.1746 2.1753 -2.9454 3.3439 1.5612 -2.7573 0.9827 2.2673 2.3212 -0.3863 -1.9529 1.4491 -0.0311 -3.0374 2.0768 -1.4249 -1.1509 -0.5635 0.4156 -1.7133 -1.2287 1.4851 -1.2799 2.2732 -2.7448 0.8074 2.8992 -3.3283 2.0020 -2.1701 2.9786 0.3369 0.1773 0.3797 -2.9471 2.8074 -1.8012 0.0254 -1.8589 1.7080 0.0040 -2.2394 0.5402 0.9022
-3.9777 0.0081 1.3112 -2.4165 -1.7228 -3.0847 4.0130 -1.6266 -1.0706 -1.3613 3.0491 -1.4051 0.1981 2.1231 0.2582 3.5480 -1.3306 3.2252 5.1561 -1.6263 1.6294 -1.9794 3.1205 2.3243 -3.1554 2.1736 2.2507 -1.6329 3.6124 0.9381 1.2805 -1.9601 -2.1728 -0.0479 -2.1471 -2.6854 1.5523 -2.0548 -0.8696 -1.0904 -0.2495 -1.5456 -2.1350 0.2128 -0.8580 2.8038 -1.7358 1.1157 3.9884 -1.5482 1.9647 -3.0213 1.1462 1.1730 -1.1229 -1.3910 -2.4254 2.8009 -1.7784 -0.2205 -2.1455 1.2511 0.1517 -1.2548 2.4741 -0.0044
-4.1271 0.0887 1.1815 -2.3584 -1.7112 -3.1417 3.9323 -1.1755 -0.9211 -1.2059 3.0329 -1.4016 0.1416 2.0065 0.3844 5.1600 -2.2486 1.5594 3.9210 -1.1744 3.1488 -2.0901 3.1471 2.2785 -3.2901 2.2368 2.1480 -1.6422 3.6156 0.9133 1.3005 -1.8380 -2.0779 -0.0028 -2.0914 -2.6229 1.5997 -2.0969 -0.8037 -1.1254 -0.1966 -1.5716 -2.2013 0.2637 -0.9327 2.8805 -2.0067 1.1889 4.0250 -1.7118 2.0576 -3.1464 1.2089 1.0721 -1.1013 -1.3500 -2.4308 2.8119 -1.7443 -0.1207 -2.2244 1.2884 0.0904 -1.2570 2.4569 0.0017
-3.8788 2.8574 -1.3062 -0.1210 1.4955 -3.9537 2.6873 -3.6834 -0.6022 -0.1150 1.3972 1.4144 -1.6726 -0.4955 1.2990 3.6497 -1.8364 3.2130 3.7418 -3.8419 2.1244 -3.1350 2.7445 2.3288 -4.0771 2.5358 1.1685 -2.2838 1.5107 2.5181 1.4976 -1.5225 -2.2562 1.0820 -0.4774 -3.1502 2.1934 -1.2891 -1.1407 -0.3303 0.7368 -1.5764 -1.5193 1.2789 -1.3269 2.9952 -1.8202 1.0340 3.4941 -2.6499 2.1426 -3.2995 2.2539 -0.0712 0.2110 0.5062 -2.8897 2.6113 -2.2613 -0.1688 -2.1546 1.5425 -0.0547 -1.5766 1.0184 1.2540
-4.5572 1.1090 -0.7374 -0.9920 0.2570 -4.0980 2.6819 -3.7380 -0.0489 -0.1983 3.0006 0.2032 -0.3378 0.9440 1.5463 4.3342 -0.8555 2.7470 4.2863 -3.0958 2.3046 -3.0279 2.2393 2.5939 -4.0593 2.1200 1.4951 -1.7707 2.8749 2.0467 1.0738 -2.1446 -1.9701 0.4329 -1.4017 -3.0181 1.9910 -1.6062 -1.1632 -0.6997 0.2373 -1.6040 -1.7723 0.9811 -1.3358 3.2379 -1.4752 0.8546 3.9938 -1.9477 2.0246 -3.5072 1.5591 0.2241 -0.4044 -0.3654 -2.8787 2.6345 -2.2501 -0.0525 -2.1873 1.4991 -0.0488 -1.1521 2.0587 0.9156
-3.1121 3.6526 -1.0164 -0.0006 1.6921 -3.9431 2.8572 -3.5353 -0.6970 -0.1867 0.7005 1.5099 -2.1500 -0.6353 0.8890 4.2873 -3.2973 2.0022 2.4559 -2.8548 3.2928 -3.7650 1.6940 2.2205 -3.7943 2.8373 1.2349 -2.3399 1.2527 2.4560 1.7510 -1.3153 -2.3440 1.3292 -0.2192 -3.1783 2.1015 -1.1745 -1.0615 -0.4403 0.6089 -1.7166 -1.1326 1.6270 -1.2091 2.6754 -1.8590 1.1479 3.0792 -2.7455 2.2487 -2.8844 2.6492 0.0647 0.3385 0.6503 -2.9306 2.5279 -2.1944 -0.1403 -1.9332 1.6935 -0.0050 -1.6641 0.7723 1.1754
-4.5108 1.6960 -0.9300 -1.7128 -0.7141 -3.8513 4.1286 -1.1651 -0.5069 0.1530 2.2105 0.3897 -0.8176 0.5313 1.8948 4.8641 -2.6963 1.7814 3.2627 -2.5116 3.3953 -2.9809 2.7367 2.4341 -3.9300 2.7255 1.2592 -1.5597 2.8844 1.9460 1.7259 -1.2327 -2.2464 0.5605 -1.2522 -3.0929 1.7691 -1.8255 -1.0483 -0.7637 0.3082 -1.7660 -1.9116 0.5324 -1.1260 2.6496 -2.3855 1.1004 3.6002 -2.5069 2.2209 -3.4546 1.9013 0.1054 -0.5848 -0.5857 -2.8838 2.8484 -1.8073 -0.0925 -2.1980 1.4186 -0.0137 -1.1376 1.7378 1.0307
-4.0782 1.5815 -1.2414 -0.0078 0.6994 -3.9517 2.1711 -4.3936 -0.0450 0.1740 2.5701 0.8588 -0.5177 0.3818 1.7468 3.5307 -1.0143 2.9155 2.8356 -0.0981 0.9447 -3.1836 1.9208 2.4727 -3.9565 2.1405 1.1922 -1.7675 2.4209 2.3054 1.2005 -2.3285 -1.9753 0.9105 -1.3297 -2.9650 2.0012 -2.0703 -0.9412 -0.2661 0.2337 -1.4962 -1.2688 1.0900 -1.3023 2.7951 -2.4816 1.3296 3.0359 -1.0649 1.6583 -3.2146 1.7005 -0.0290 0.2172 -0.1978 -2.7844 2.2988 -2.9260 0.1688 -1.8855 1.4678 -0.0474 -1.0244 1.6977 1.1859

>  <OB_ATOM_TYPES> (1epbA1)
C.3 C.3 C.3 C.3 C.3 O.co2 O.co2 C.3 C.3 C.3 C.2 C.2 C.2 C.2 C.2 C.2 C.2 C.2 C.2 C.2 C.2 C.3

>  <ENSEMBLE_RMSD> (1epbA1)
1.078 1.133 1.134 1.153 1.187 1.204 1.235 1.276 1.307 1.308 1.319 1.375 1.403 1.442 1.452 1.463 1.487 1.575 1.698 1.741 1.743 1.747 1.811 1.891 1.940 1.989 2.008 2.054 2.106 2.158 2.178 2.213 2.286 2.309 2.333 2.333 2.372 2.383 2.484 2.565 2.601 2.657 2.698 2.711 2.752 3.041

$$$$
