
 OpenBabel03071213D

 46 48  0  0  0  0  0  0  0  0999 V2000
   34.3640   -8.7570    5.2470 O   0  0  0  0  0
   36.5070   -8.9240    5.9360 O   0  0  0  0  0
   35.1040  -11.2960    3.8410 F   0  0  0  0  0
   34.7100  -11.2810    5.8530 F   0  0  0  0  0
   34.0330  -13.8210   -1.4670 C   0  0  0  0  0
   38.5090  -12.4190    6.8120 C   0  0  0  0  0
   36.5960  -10.1450    1.1750 O   0  0  0  0  0
   32.7320   -8.1850   -1.2680 O   0  0  0  0  0
   34.3590   -8.5990   -4.4530 O   0  0  0  0  0
   37.7810  -11.8210    4.4160 O   0  0  0  0  0
   38.6020   -4.7580    0.7240 C   0  0  0  0  0
   38.6760   -6.2700    0.4530 C   0  0  0  0  0
   37.3100   -4.3430    1.2730 C   0  0  0  0  0
   30.7770   -6.5530   -6.3560 C   0  0  0  0  0
   31.4860   -8.6410   -7.1880 C   0  0  0  0  0
   34.2020  -12.1490    0.4110 C   0  0  0  0  0
   38.2070   -7.0160    1.6900 C   0  0  0  0  0
   36.8100   -5.1140    2.4840 C   0  0  0  0  0
   34.5110  -10.9620   -0.4720 C   0  0  0  0  0
   32.0090   -6.3100   -5.7150 C   0  0  0  0  0
   32.8620   -8.4650   -6.6830 C   0  0  0  0  0
   36.6660   -7.3540    3.6360 C   0  0  0  0  0
   34.2260   -5.4560   -1.5280 C   0  0  0  0  0
   34.8240   -8.5260   -0.6400 N   0  0  0  0  0
   35.1960   -9.0450    2.5090 N   0  0  0  0  0
   33.6170   -6.7070   -3.5780 N   0  0  0  0  0
   30.9720   -7.3220   -7.5670 O   0  0  0  0  0
   33.4710  -13.3180   -0.1940 C   0  0  0  0  0
   36.4990   -2.4730   -3.6380 C   0  0  0  0  0
   37.1650   -3.6050   -3.1060 C   0  0  0  0  0
   35.1440   -2.3490   -3.4730 C   0  0  0  0  0
   36.3830   -4.5380   -2.4410 C   0  0  0  0  0
   34.3630   -3.2670   -2.8110 C   0  0  0  0  0
   37.1720  -11.7830    6.5550 N   0  0  0  0  0
   36.9750   -6.6040    2.3700 C   0  0  0  0  0
   34.4240   -9.6120    0.2950 C   0  0  0  0  0
   34.4320   -6.8050   -2.3250 C   0  0  0  0  0
   36.2070   -8.7560    3.5860 C   0  0  0  0  0
   32.8370   -7.4660   -5.6290 N   0  0  0  0  0
   35.5270   -9.6380    1.4140 C   0  0  0  0  0
   33.8580   -7.8980   -1.3780 C   0  0  0  0  0
   33.6370   -7.6200   -4.5270 C   0  0  0  0  0
   35.0450   -4.3950   -2.2620 C   0  0  0  0  0
   36.9100  -11.4650    5.2600 C   0  0  0  0  0
   35.6750   -9.3170    4.9050 C   0  0  0  0  0
   35.5910  -10.8480    4.9370 C   0  0  0  0  0
  1 45  1  0  0  0
  2 45  1  0  0  0
  3 46  1  0  0  0
  4 46  1  0  0  0
  5 28  2  0  0  0
  6 34  2  0  0  0
  7 40  2  0  0  0
  8 41  2  0  0  0
  9 42  2  0  0  0
 10 44  2  0  0  0
 11 12  1  0  0  0
 11 13  1  0  0  0
 12 17  1  0  0  0
 13 18  1  0  0  0
 14 20  1  0  0  0
 14 27  1  0  0  0
 15 21  1  0  0  0
 15 27  1  0  0  0
 16 19  1  0  0  0
 16 28  1  0  0  0
 17 35  1  0  0  0
 18 35  1  0  0  0
 19 36  1  0  0  0
 20 39  1  0  0  0
 21 39  1  0  0  0
 22 35  1  0  0  0
 22 38  1  0  0  0
 23 37  1  0  0  0
 23 43  1  0  0  0
 24 36  1  0  0  0
 24 41  1  0  0  0
 25 38  1  0  0  0
 25 40  1  0  0  0
 26 37  1  0  0  0
 26 42  1  0  0  0
 29 30  1  0  0  0
 29 31  2  0  0  0
 30 32  2  0  0  0
 31 33  1  0  0  0
 32 43  1  0  0  0
 33 43  2  0  0  0
 34 44  1  0  0  0
 36 40  1  0  0  0
 37 41  1  0  0  0
 38 45  1  0  0  0
 39 42  1  0  0  0
 44 46  1  0  0  0
 45 46  1  0  0  0
M  END
>  <MOLID> (1epoA1)
1epoA1

>  <SMILES_CANONICAL> (1epoA1)
C=CCC[C@@H](C(=O)N[C@H](C(C(C(=O)N=C)(F)F)(O)O)CC1CCCCC1)NC(=O)[C@@H](NC(=O)N1CCOCC1)Cc1ccccc1	

>  <FINGERPRINT> (1epoA1)
0000000000000011000000000001000000000001000000000111001000000000000000000001000000000001000000001000010000100001000011100000000000000000000010000000010010000010000000000000000000000000000000000000000000000000000000000000010000100000000000000010010000001100000100000010000000001000000000000000000000011010100010001100010000001000001100000000000000000000010000000000001110110000000000000001011000000000101100000000101000000000100000000010000000000001100000000001100000010100000010000000000000101100000001010000100000110000000010000100100000011000000000100000000000000000000000000000001011000001001000000100100000000000000010000000001000000101000000000000000000000001000000000011100000100101000001100001000000010011000000000000000000000011100000110111000000000000000110000000000000000001000011000000000010000000000000000000000000000000010000001000000000010000011000001001000000000000000000000000000000001100000000000000001000000000000000100000011000000000000010110010010000000010010000000000000000000000100000000010011000000000

>  <MACCS166> (1epoA1)
000000000000000000000000000000000100100001100000010001001000000000000000001111100000110011110010111000010110111100001111111000011011010111110100111100111111111010111000

>  <OB_MW> (1epoA1)
649.329

>  <OB_logP> (1epoA1)
3.1997

>  <OB_PSA> (1epoA1)
169.66

>  <OB_MR> (1epoA1)
170.558

>  <OB_ATOMIC_CHARGES> (1epoA1)
-0.2668936564 -0.2668936564 -0.1861231197 -0.1861231197 -0.0049081183 0.1066799283 -0.2714848535 -0.2714631446 -0.2507557314 -0.2667795314 5.8e-09 7.322e-07 7.322e-07 0.1637027008 0.1637027008 0.0283107857 5.95542e-05 5.95542e-05 0.0357589643 0.1270745669 0.1270745669 0.0297162911 0.0574710538 -0.1963203917 -0.1977105583 -0.1804453403 -0.3501303785 -0.026076215 -2.0017e-05 -0.0003216891 -0.0003216891 -0.0041981853 -0.0041981853 -0.17167324 0.001970121 0.1730948883 0.1786141185 0.1852679827 -0.2577056336 0.261407543 0.2620047249 0.3237600341 -0.0199556896 0.3147025656 0.4315110784 0.4085569503

>  <MCT_HBD> (1epoA1)
5

>  <MCT_HBA> (1epoA1)
12

>  <ENSEMBLE_TOTAL> (1epoA1)
50

>  <ENSEMBLE_COORDS> (1epoA1)
3.1806 -2.2556 2.9667 1.6125 -3.3435 1.6436 1.2736 -4.0913 4.1033 -0.3033 -2.6688 3.6749 -2.6619 -4.8708 2.9251 3.1344 -2.7479 6.2719 -1.4592 -0.1670 2.5339 -3.7194 0.6710 -1.2325 -3.5352 0.7411 -4.5558 1.2412 -0.7304 5.1646 4.9295 2.9558 2.5583 3.9747 3.2070 1.4102 5.1158 1.4896 2.8735 -0.4337 -1.4532 -6.3707 -2.4378 -1.0148 -7.4647 -3.0572 -3.2358 1.1192 3.3521 1.9484 0.8479 3.7877 0.7911 3.0550 -2.1425 -2.5426 0.1383 -0.3031 -0.0088 -5.9181 -2.3957 0.4531 -7.0704 2.4004 -0.2701 1.2963 -0.5276 2.0999 -1.7787 -1.6885 -0.3423 -0.7829 0.1717 -1.1334 1.1985 -1.4698 0.7007 -3.5342 -1.1053 -1.4979 -7.6285 -2.3464 -4.3894 1.7225 -0.5533 6.3568 -1.2874 -0.0286 5.4793 -0.2568 -1.0569 5.8374 -2.4210 -0.0600 4.1452 -0.4269 -1.0638 4.3989 -2.6169 1.8461 -2.7013 6.1877 2.8019 1.0418 1.9296 -2.0994 -1.0541 0.4037 -1.7800 1.4870 -2.3663 1.3126 -0.9804 2.0801 -1.6145 0.6132 -5.8592 -1.1069 -0.7213 1.4960 -2.5042 0.5815 -1.3968 -2.3071 0.6845 -4.6419 -0.6117 3.5803 -1.6482 1.4065 -1.9468 5.1258 1.7957 -2.3335 2.6353 1.0362 -2.7627 3.8958
-1.1777 -0.4838 3.8261 0.4601 -0.5139 5.4955 1.2278 -3.0810 4.2757 -0.6317 -3.0010 3.1630 1.1997 -5.3502 -1.9048 0.4410 -4.4628 6.6632 2.3884 0.3051 0.6120 -0.3087 -1.8200 -3.0331 -3.1986 0.2821 -2.0958 -2.0265 -3.1600 5.4718 4.0024 3.8181 3.0704 2.6387 3.8862 3.7175 4.0928 2.5678 2.2265 -6.5847 0.6488 -4.3329 -5.2197 1.7164 -5.8620 2.2011 -3.5635 -0.5135 2.4589 2.7080 4.6508 3.8465 1.3182 3.0479 2.2009 -2.1470 -1.0443 -5.4446 -0.2048 -3.7971 -4.0248 0.8449 -5.5415 1.3442 0.9818 3.2571 0.4302 1.0838 -4.2459 0.5762 -0.3719 -1.4442 0.8392 -0.9362 1.8401 -1.8385 0.2456 -3.9605 -6.3988 0.9316 -5.7159 1.0546 -4.3419 -1.0457 1.7301 5.0378 -3.2088 0.4748 4.8254 -3.9064 2.5192 3.9902 -2.9106 0.0901 3.5798 -4.2385 2.0990 2.6435 -3.2590 -0.0377 -3.2630 6.6262 2.6282 1.3764 3.9502 1.0365 -1.3528 -0.4860 -0.6117 0.5728 -3.2687 1.1584 -0.5288 3.2012 -4.1513 0.3174 -4.1980 1.5198 -0.5568 0.6985 -0.1137 -0.6892 -2.5989 -3.0718 0.2790 -3.3217 0.9182 2.4411 -3.8724 -0.8054 -3.0242 5.5104 0.0911 -1.0090 4.2090 -0.0224 -2.5399 4.2931
2.0049 -0.0534 4.7653 2.7357 -1.5540 3.1315 0.2004 -2.9287 3.6709 -0.0963 -1.5845 5.3439 1.0365 -6.1188 2.1639 1.0780 -5.0340 5.7854 -1.5767 -1.8083 1.7094 -1.3441 -2.2765 -2.9460 -3.1656 1.3208 -2.4444 2.4758 -2.4682 6.3189 1.6794 4.5417 3.2284 0.3919 4.5854 2.4363 1.6631 3.5107 4.3378 -3.0050 2.4435 -6.8281 -4.3612 3.6627 -5.3765 0.4150 -4.6803 0.2579 0.0183 3.2192 1.9027 0.4447 2.6113 4.3180 0.8332 -3.3265 -0.2638 -3.2508 1.1515 -6.0724 -4.6750 2.4390 -4.5345 1.1197 1.0824 2.4634 0.5948 0.1646 -3.8934 -0.1464 -1.3102 -1.2148 0.6139 -1.0717 1.5266 -1.8307 0.1970 -3.9465 -4.1574 3.2781 -6.7348 1.2866 -5.0581 1.3966 2.4527 4.0158 -3.5984 1.1332 3.8717 -4.1844 3.0899 2.9403 -3.1026 0.5545 2.6599 -4.2530 2.4644 1.6314 -3.1718 1.8642 -4.3005 5.0688 0.1076 2.1065 2.9295 -0.3428 -2.3743 -0.2615 -0.6822 0.0521 -3.0853 0.6771 -0.3360 2.7733 -3.6339 1.4478 -4.7053 -0.5203 -1.7207 1.0884 -0.7757 -1.3123 -2.4432 -2.8913 1.0221 -3.6081 1.2427 1.4942 -3.7190 1.8127 -2.9718 5.4154 1.5956 -1.0207 3.7992 0.8688 -2.1401 4.5564
2.7722 -0.0841 4.5225 2.9219 -1.2650 2.5206 0.4643 -2.5918 3.5049 0.8219 -1.6192 5.4085 -1.6866 -5.6484 1.6130 1.4935 -5.0410 4.8437 -1.6546 -0.9845 2.1986 -1.9355 -1.7883 -2.5210 -1.7892 2.8225 -4.3798 3.4993 -2.7822 5.2819 0.0637 4.3332 5.5878 0.3413 4.9017 4.2127 1.1755 3.4285 6.0712 -5.2225 0.3378 -6.6085 -4.3538 2.1433 -7.7295 -0.5651 -4.2725 -0.1014 0.7069 3.8516 3.1797 1.7177 2.5135 4.9968 0.1713 -2.9863 0.2020 -4.2919 0.4423 -5.4178 -3.5560 2.5714 -6.5096 1.4396 1.5204 2.7409 0.2266 0.1995 -3.8297 -0.4527 -0.9128 -0.9733 0.5120 -0.3977 1.6322 -2.1722 0.6432 -3.7058 -4.5396 0.7378 -7.7869 -0.5598 -5.1845 1.0703 3.2680 3.0997 -2.9980 3.3017 1.7843 -2.3844 2.2927 3.4115 -3.8696 2.3465 0.8813 -2.6703 1.2710 2.4316 -4.1892 2.2703 -4.3246 4.1000 0.8409 2.4601 3.7646 -0.7689 -1.7985 0.1287 -0.9729 0.4042 -2.9192 0.9581 0.0881 2.9281 -3.3265 1.5227 -5.5328 -0.7029 -1.0141 1.4216 -1.2041 -0.8795 -2.1360 -2.3829 1.7517 -4.5199 1.2730 1.2290 -3.5860 2.5054 -3.0751 4.6216 2.0387 -0.8220 3.5468 1.4439 -2.0387 4.2699
1.5172 0.2536 4.8298 2.5113 -1.1618 3.2666 0.1764 -2.8853 3.8115 -0.3186 -1.5443 5.4415 1.9720 -6.6461 0.6906 3.1036 -4.1651 4.6487 -1.6220 -2.2380 1.7920 -2.2181 -1.6494 -2.2324 -1.2490 3.1213 -3.0158 2.2986 -2.0324 6.4820 1.4069 4.2507 2.9654 0.4996 4.1855 1.7555 0.6405 4.0332 4.2491 -4.7740 1.5589 -5.5222 -3.6729 3.4821 -6.2089 0.3865 -4.8335 0.1475 -0.6667 3.2276 1.9096 -0.0481 2.6851 4.2836 0.8354 -3.4313 -0.1968 -4.4721 1.8199 -4.0561 -3.3154 3.8681 -4.7859 0.6109 1.1559 2.4189 -0.0334 0.0305 -3.9180 -0.1743 -1.4244 -1.1593 0.3785 -1.0813 1.5954 -2.0811 0.9686 -2.9853 -4.9237 2.7982 -6.2112 1.4403 -5.8146 -0.2065 3.6262 2.2578 -4.0187 3.5927 0.9003 -3.5050 2.5048 2.8236 -4.4989 2.4322 0.2205 -3.4702 1.2604 2.0768 -4.4935 1.9882 -3.9652 5.2688 -0.4312 2.1291 2.9254 -0.3560 -2.5001 -0.2164 -0.8393 0.3004 -2.6605 0.3061 -0.2809 2.8073 -3.3199 2.6951 -3.9378 -0.6203 -1.9208 1.1550 -1.1871 -1.0214 -2.0107 -2.1455 2.3210 -3.2895 1.2125 0.8438 -3.9567 1.7662 -2.6398 5.5559 1.2832 -0.7907 3.8853 0.7184 -1.9810 4.6707
2.5778 -0.0481 4.6116 2.7899 -1.1612 2.5741 0.4027 -2.6237 3.4536 0.6004 -1.6494 5.3795 -1.3304 -5.8008 1.4550 1.8480 -5.1643 4.5977 -1.8017 -1.0283 2.1523 -1.8328 -1.8968 -2.5327 -1.6993 2.7159 -4.2717 3.2044 -2.7500 5.5687 0.4054 4.9532 5.2384 0.5558 4.9824 3.7400 1.3407 3.9276 5.8224 -5.4193 0.6611 -6.2857 -4.5336 2.5453 -7.3045 -0.3815 -4.1968 -0.1593 0.0491 3.6938 3.1445 1.3222 2.5948 5.1168 0.2649 -2.8729 0.1730 -4.1190 0.3560 -5.5652 -3.1699 2.3328 -6.6757 1.2066 1.5491 2.8907 0.3662 -0.0021 -3.8527 -0.5148 -0.8453 -0.9403 0.3611 -0.3345 1.6903 -2.0203 0.4702 -3.8458 -5.1498 1.2826 -7.5384 -0.2814 -5.1144 1.0010 3.5134 2.7534 -2.9345 2.4168 3.1398 -3.8029 3.5572 1.5140 -2.4139 1.4458 2.2555 -4.0900 2.4993 0.5640 -2.7106 2.3927 -4.1823 3.9587 0.4779 2.4384 3.8703 -0.7747 -1.7765 0.1278 -0.8619 0.2713 -3.0064 0.7714 0.1025 3.0111 -3.2971 1.5500 -5.4648 -0.8094 -1.0111 1.4282 -1.1509 -0.9464 -2.1619 -2.2804 1.6561 -4.5132 1.4742 0.9261 -3.5028 2.3933 -3.0162 4.6850 1.8828 -0.7824 3.6039 1.3083 -2.0323 4.2786
3.1907 -1.7662 3.2484 1.3285 -3.1537 3.0558 1.8179 -0.4143 5.3108 2.3128 -2.4972 5.6183 1.8173 -6.3895 0.9422 -2.0381 -1.6132 4.5498 -1.2172 -1.7553 1.1315 -1.3906 -1.7796 -3.2484 -2.6646 2.3279 -2.8131 -0.2216 -2.8693 6.1071 0.6192 4.5102 3.3746 0.9959 3.9640 2.0218 1.3747 3.7594 4.4398 -5.2968 0.4060 -5.8365 -5.9773 2.2661 -4.6407 0.8482 -4.6035 -0.4561 0.4791 2.5541 1.8805 1.2527 2.2573 4.3444 1.2627 -3.2124 -0.8798 -3.8333 0.8146 -5.8515 -4.5886 2.8811 -4.7414 1.7735 0.5613 2.6095 0.7747 0.6950 -3.9950 0.2222 -1.1533 -1.7060 1.0341 -1.2035 1.1451 -1.6407 0.7664 -4.1685 -5.9302 0.8444 -4.6409 1.9882 -5.3130 0.1738 3.2689 3.5572 -2.0072 3.2528 2.1669 -1.5912 2.5115 3.9590 -3.0436 2.4728 1.2817 -2.2363 1.6585 3.0057 -3.7323 -0.8798 -1.0889 4.7794 0.8069 1.6394 3.0376 0.0779 -2.2731 -0.8075 -0.5408 0.4968 -3.2654 1.1020 -0.7982 2.5346 -3.5502 1.8838 -4.9111 -0.1180 -1.7142 0.5828 -0.6407 -0.9352 -2.7674 -2.6240 1.7036 -3.8752 1.6189 1.7231 -3.3279 0.0360 -1.9686 5.3093 1.7775 -1.8513 3.4268 1.4760 -1.6714 4.9192
1.3011 -3.2763 4.7999 -0.6100 -2.3529 3.8531 0.3860 0.1585 5.0950 1.7712 -1.0801 6.2092 3.1787 -4.5388 -2.2370 -2.1502 0.0255 6.3651 -0.4439 -0.0670 1.6634 -1.6264 -1.6464 -2.6286 -3.2561 2.5130 -4.3218 -0.2784 -2.0952 7.5674 6.2995 1.0283 3.2376 4.9837 1.4546 2.6220 6.0789 0.1987 4.4854 -5.2646 -0.8456 -6.3121 -5.8747 1.3477 -6.7207 1.4059 -2.9215 -1.7087 4.1020 0.2544 2.3438 5.1883 -0.9933 4.2036 1.4522 -1.6468 -0.9025 -3.7971 -0.5233 -6.1024 -4.4142 1.7735 -6.7516 3.0192 -1.7645 3.3258 -0.1191 1.4504 -3.1770 -0.5957 -0.3579 -1.0012 1.0867 -1.7809 1.8922 -2.1006 0.5054 -4.2064 -6.0759 0.2326 -5.8592 2.7692 -3.2724 -2.1654 -0.4071 5.7199 -2.9227 -0.5550 4.8954 -1.7364 -0.1450 5.1482 -4.1115 -0.4569 3.5567 -1.8267 -0.0421 3.7027 -4.2099 -1.8019 -1.1900 6.1010 3.8665 -0.5475 3.6093 0.0933 -1.4105 -0.2804 -1.4509 0.7602 -2.9403 1.5420 -1.4372 3.2274 -3.5736 0.9015 -5.9555 0.2260 -0.9722 1.1705 -1.2301 -0.5596 -2.2167 -3.0014 1.3984 -4.7806 -0.2218 2.9346 -3.1196 -0.5297 -1.5011 6.5219 0.6949 -2.0680 4.3518 0.5768 -1.1116 5.5495
-0.2915 0.9228 4.6899 1.4226 -0.1016 5.8643 -1.4422 -1.4807 4.1914 -1.1170 -1.0865 6.2945 3.9895 -2.7188 -0.9151 0.9588 -4.3221 3.9106 -0.2749 1.4243 1.7623 -1.0028 -0.7362 -2.5818 -4.1350 0.3874 -3.1465 0.8879 -2.9908 6.3302 5.7372 -2.8428 2.9471 5.7285 -1.5651 2.1380 5.1743 -2.6715 4.3424 -2.8846 -1.0571 -7.5142 -5.0778 -1.3252 -6.9107 1.7646 -1.6704 -1.0665 4.3562 -0.9293 2.1273 4.6388 -1.2819 4.6191 1.5210 -0.3114 -0.4511 -2.5813 -0.0873 -6.3894 -4.9588 -0.4097 -5.7076 2.4003 -1.4180 3.5534 -0.4075 2.5529 -3.0489 -0.6846 0.6756 -0.7758 0.4305 -0.6988 2.3489 -2.1845 1.2266 -4.0429 -4.2244 -0.8615 -7.9487 3.1857 -1.8067 -1.4626 -1.4362 6.6992 -2.7326 -1.4660 5.8398 -1.5629 -1.0996 6.1930 -3.9322 -1.1495 4.5372 -1.6754 -0.7631 4.7859 -4.0555 -0.0714 -3.6702 4.3376 3.7556 -0.7533 3.5068 0.0891 -0.2369 0.0360 -1.5719 1.6153 -2.7875 1.2741 -0.4108 3.4863 -3.5824 -0.1352 -5.3340 0.0666 0.2868 1.4527 -1.0541 0.3803 -2.0742 -3.3693 0.5043 -4.1061 -0.8016 3.9851 -2.9752 0.2212 -2.7563 5.3236 0.4936 -0.2671 4.7958 -0.4641 -1.4135 5.1395
2.8731 -1.3309 3.6855 1.5497 -3.1611 3.1329 0.9737 -0.7546 5.7337 2.1101 -2.5928 5.8631 4.8126 -4.2098 -1.2159 -2.3295 -2.3007 5.7048 -0.9115 -2.3231 0.9006 -1.7948 -1.3744 -2.3161 -2.8457 2.4358 -2.3468 -0.1493 -3.9431 5.7377 0.3140 3.6311 4.0946 1.0263 2.8774 5.1984 1.1698 3.7611 2.8545 -5.2738 1.1343 -5.9453 -5.9775 2.9287 -4.6507 2.5033 -3.3786 -0.9889 2.0144 1.8459 4.6892 1.5445 2.4121 2.2761 2.1358 -1.9150 -0.9252 -4.6800 0.4095 -4.7491 -5.4506 2.3019 -3.3727 0.4338 0.4583 3.3435 0.2054 0.4134 -4.3328 0.1816 -0.5433 -1.4440 0.9147 -1.0014 1.4471 -2.1284 0.8345 -3.8378 -6.4058 1.9002 -5.5405 3.8905 -3.5653 -0.5007 3.4292 3.2289 -4.1251 3.4062 2.0567 -3.2701 2.4268 3.4465 -4.9953 2.3847 1.1857 -3.3500 1.3189 2.5105 -5.0756 -1.3100 -2.1084 4.9359 1.6818 1.3140 3.3101 0.6360 -1.7645 -0.8305 -0.8243 0.6487 -3.2462 0.6441 -0.9599 2.8608 -4.3955 1.3563 -3.6840 0.1243 -1.7378 0.5880 -0.8877 -0.5470 -2.3198 -3.1023 1.6101 -3.2263 1.2883 1.4314 -4.2725 -0.1786 -2.7832 5.3303 1.5489 -1.8538 3.7061 1.1032 -1.9841 5.1689
1.5469 -3.2498 4.3599 -0.2899 -2.5769 3.0884 -0.5840 -0.4871 5.1219 0.8411 -1.5833 6.3358 3.1126 -3.0637 -3.3043 -1.4746 -4.0147 7.4758 -0.0244 0.3969 1.5010 -1.4021 -1.2253 -1.5972 -3.2024 2.5996 -3.5891 -2.3092 -2.5393 5.2963 5.5489 2.1340 4.7612 4.7239 1.8315 3.5275 4.9681 1.5591 6.0364 -4.9459 -0.9829 -5.8279 -5.5480 1.1711 -6.4553 2.9096 -0.9399 -2.0773 3.2684 1.5769 3.8534 4.2372 0.2591 5.7850 2.6100 -0.6001 -0.6329 -4.7789 -0.5844 -4.3710 -5.4352 1.6884 -5.0333 2.8845 -0.8759 4.0756 -0.0645 0.8604 -3.9651 0.3589 0.1951 -1.1113 1.6559 -1.1033 2.0136 -2.4039 0.4416 -3.4360 -5.9657 -0.1919 -6.4341 3.3851 -2.3374 -2.2194 0.2321 4.7324 -5.7862 0.6793 4.5187 -4.4219 -0.2804 3.7104 -6.4946 0.5841 3.2983 -3.8640 -0.3873 2.3932 -5.8916 -0.7262 -3.7677 6.4522 3.0768 0.4247 4.8211 1.1316 -0.7323 -0.3097 -1.1238 0.8173 -2.8786 1.5074 -1.0061 3.4537 -4.5395 0.8441 -4.2729 0.8606 -0.3786 1.1448 -0.7545 -0.2074 -1.8254 -3.3680 1.3884 -3.7502 0.0153 2.1953 -4.6225 -1.1595 -2.6990 5.7033 0.6837 -2.1619 4.0456 -0.0541 -1.7278 5.3194
-1.0664 -0.0048 3.1848 0.4969 0.3471 4.8708 0.8867 -2.5643 4.7582 -0.8313 -2.6632 3.4412 3.1988 -4.0369 0.6157 -0.8076 -3.3909 7.1133 2.1467 0.8881 0.4755 -0.0958 -0.9967 -3.5547 -3.4011 0.8636 -2.2436 -2.3381 -1.3979 5.4987 5.2594 -1.8665 5.6235 5.9019 -1.4088 4.3324 3.9613 -1.1541 5.9395 -6.0955 -0.5889 -4.6395 -4.6629 -0.1823 -6.4271 2.2950 -2.8768 -1.3640 4.9027 -1.3862 3.1971 3.6076 -0.0791 4.9360 2.3289 -1.3747 -1.5107 -5.6487 0.6691 -3.9169 -4.1358 1.0947 -5.7966 2.4422 -1.3832 3.1547 0.0893 2.1054 -4.2669 0.5788 0.2985 -1.7535 0.8417 -0.7752 1.4415 -2.0135 0.8807 -4.0802 -6.0234 -0.3805 -6.0483 3.4063 -3.3121 -0.4836 -0.5941 6.3259 -4.0667 -0.6614 5.6087 -5.3265 -0.3059 5.6670 -2.9304 -0.4461 4.2818 -5.3598 -0.0543 4.2379 -2.9673 -0.5997 -2.1528 6.8050 3.6639 -0.5669 3.5023 1.0752 -0.7675 -0.9186 -0.8292 1.3007 -3.3728 1.2512 -0.5206 2.7999 -4.3223 1.0463 -4.3573 1.4278 -0.1025 0.3851 -0.1018 0.0582 -2.9292 -3.2567 0.9185 -3.4667 -0.1423 3.5678 -4.1316 -1.1815 -1.7963 5.6112 0.1031 -0.5290 3.8162 -0.2498 -1.9011 4.4097
1.7035 0.3383 4.8192 2.6284 -0.4977 2.8444 0.8585 -2.7543 3.2342 0.2809 -1.9312 5.1545 -0.3386 -5.9251 -0.4314 2.7892 -4.7096 4.8772 -1.6267 -1.8373 1.6048 -1.6681 -1.8117 -2.5119 -1.4416 2.7921 -2.7943 3.0627 -1.9713 5.8647 -0.9432 4.7487 4.5906 -2.1361 4.2564 3.8002 -0.1777 3.6337 5.2732 -5.1851 1.6270 -4.8006 -4.7855 3.9157 -4.7295 1.3105 -4.1168 -0.7257 -1.7280 3.1308 2.8737 -0.7893 2.2651 5.0645 1.2529 -2.8331 0.0701 -3.7353 1.4333 -5.2133 -3.2713 3.7926 -4.6720 0.1543 1.5015 2.8932 0.4699 -0.3958 -4.2920 0.0874 -1.0898 -1.1791 0.2446 -0.4724 1.5495 -1.6145 0.6702 -3.6795 -5.3873 2.8189 -4.0501 0.6982 -5.2312 0.0395 4.2895 1.5235 -4.4368 4.1005 0.2946 -3.6872 3.2621 2.0654 -5.1148 2.8918 -0.2941 -3.6527 1.9565 1.4318 -5.0778 3.0621 -3.6129 4.2509 -1.0918 1.9683 3.6106 -0.0558 -2.1174 -0.1796 -0.3814 0.1333 -3.1574 0.2572 -0.0141 2.9218 -2.8522 2.4066 -4.6004 -0.5748 -1.4753 1.0840 -0.7563 -1.0270 -2.2699 -1.9245 2.0217 -3.6256 1.7735 0.3118 -4.3556 2.5532 -2.5019 4.8804 1.4881 -0.5182 3.6979 1.2900 -1.9426 4.2380
-1.0291 -2.3847 2.4262 -1.1128 -0.1317 3.0270 0.7751 -1.0174 5.1754 0.2900 -3.0431 4.5882 3.5044 -5.3471 -1.4928 -1.3158 -0.4613 7.1919 2.8735 -0.2546 0.2217 -0.4681 -1.8406 -3.3494 -3.0336 0.6763 -1.3518 -2.2774 -2.6240 5.3651 5.2690 1.2380 4.7169 3.9669 1.6370 5.3785 5.1483 -0.1220 4.0623 -5.2895 1.6272 -4.9435 -6.0877 2.1753 -2.8291 2.7408 -3.2812 -2.5969 2.8237 1.6093 4.3868 4.0105 -0.1393 3.0639 2.8051 -1.8741 -2.0577 -4.8252 0.2592 -4.4731 -5.6696 0.8299 -2.2607 1.5747 0.2953 2.7260 -0.2820 1.1327 -4.4778 0.8270 -0.4814 -1.9847 0.9156 -1.2694 0.9705 -2.2887 0.1984 -3.4803 -6.4437 2.0185 -4.2018 3.7692 -4.1165 -1.9318 1.2061 5.0875 -3.7831 2.0622 3.9275 -3.6097 -0.0746 4.9293 -4.1631 1.5760 2.6923 -3.8272 -0.5996 3.5964 -4.4016 -1.7023 -0.4734 5.9591 2.7057 0.2516 3.7253 1.5337 -1.5417 -1.3062 -0.9082 0.5376 -3.2344 1.0172 -1.0865 2.4127 -4.5763 0.2881 -3.0419 1.8815 -0.9525 0.0365 -0.1897 -0.7408 -2.8823 -3.2772 0.4311 -2.5353 0.1883 2.5202 -4.2252 -1.4878 -1.6842 5.3424 -0.3423 -1.3280 3.1005 -0.1831 -1.7632 4.5645
0.2956 -2.8303 4.2947 -0.7617 -1.2422 2.9552 0.8386 0.6938 4.4705 1.2914 -0.9048 5.8658 1.7794 -4.6030 -0.2115 -2.0212 -0.8045 7.4786 1.2381 0.5976 0.8721 -0.5184 -1.2202 -3.3757 -3.6112 2.3929 -3.8928 -1.7508 0.5543 5.1511 6.8296 -1.3475 4.5959 6.3275 -0.7593 3.2938 5.7379 -1.3553 5.6450 -5.8178 0.6196 -7.0080 -5.1078 -1.2146 -5.6915 1.8701 -2.9823 -2.0808 5.0898 -1.4853 2.8045 4.5051 -2.0792 5.1443 2.1211 -1.6313 -1.4462 -4.9517 1.5809 -6.2172 -3.7562 -0.5477 -5.8693 2.8015 -2.2623 3.3706 -0.0961 2.1733 -3.4450 0.2843 -0.0299 -1.5548 1.4153 -1.6250 1.4926 -1.9333 0.8492 -4.2962 -6.2151 -0.4519 -6.1592 2.4313 -4.0751 -1.2487 -1.4429 6.0956 -2.3629 -1.0404 5.1406 -1.3463 -1.3701 5.7644 -3.6643 -0.6059 3.9188 -1.7032 -0.9034 4.4441 -4.0506 -1.2944 -1.2640 6.5141 3.9938 -1.4664 3.8538 0.8481 -1.1285 -0.7905 -1.1375 1.1159 -3.1149 1.6566 -1.3789 2.9045 -3.8249 0.8802 -5.6356 1.1905 -0.5972 0.5919 -0.4389 -0.1809 -2.7260 -3.1626 1.4484 -4.5437 -0.5598 3.5471 -3.1078 -0.9925 -0.3289 5.5502 0.3829 -1.5113 3.7648 0.3861 -0.5085 4.9284
-0.7671 -0.1344 3.9852 0.5711 -0.9683 5.6938 0.6733 -3.4061 4.0340 -0.9057 -2.5359 2.8275 5.0634 -2.1735 -2.7156 -1.1531 -3.4093 7.2562 0.5730 1.0527 1.4396 -1.4711 -0.9918 -1.2945 -3.1570 2.6706 -3.7569 -2.5438 -2.4808 5.0165 5.6241 1.2609 5.5512 4.2126 1.6046 5.9748 5.7257 1.0522 4.0553 -6.1632 -0.8479 -4.8265 -6.1638 1.1337 -6.0702 3.1240 -1.7561 -1.2483 3.1675 0.6681 5.4048 4.6992 0.0802 3.5064 2.6633 -0.4726 -0.6000 -4.9338 -0.4909 -4.0122 -5.5614 1.7640 -4.8251 2.7454 -1.4095 4.0008 -0.1788 0.7874 -3.9593 0.4387 0.3053 -1.1357 1.3178 -1.0477 2.0733 -2.4920 0.5194 -3.2550 -6.0325 -0.2819 -6.1257 4.5604 -1.6466 -1.5988 0.3959 4.5783 -5.8797 0.8823 4.3495 -4.5313 -0.2431 3.5966 -6.5406 0.7000 3.1538 -3.9424 -0.4425 2.3061 -5.9048 -0.9352 -3.7876 6.0403 3.7591 -0.4420 4.5668 1.1924 -0.5633 -0.2582 -1.1658 0.8822 -2.8090 1.4763 -0.7617 3.4820 -4.5819 0.9064 -4.1969 0.9928 -0.0656 1.1572 -0.7699 -0.0663 -1.6935 -3.3979 1.4619 -3.7190 -0.0010 2.0947 -4.6512 -1.3878 -2.8915 5.1002 0.2320 -1.0981 4.3152 -0.3421 -2.4993 4.0692
-1.3139 0.2409 3.0196 -0.1014 -0.0244 4.9807 0.6738 -2.6440 3.6060 -1.0716 -2.2645 2.3779 4.7024 -4.1309 -1.0141 -1.1306 -4.5249 5.3199 1.9022 1.3834 0.4803 -0.6582 -1.5515 -2.4776 -3.4323 2.5614 -2.7480 -2.5725 -1.9923 4.7956 4.9755 0.7209 6.4600 5.4494 1.0567 5.0662 3.6109 1.3352 6.6539 -5.9075 -1.1995 -4.3779 -6.8299 0.8894 -4.7571 3.1377 -2.3204 -1.6065 4.5445 0.4209 4.0372 2.6249 0.7221 5.6913 2.9445 -0.8682 -1.2420 -4.9963 -0.6111 -3.3129 -5.7850 1.6389 -3.9493 2.3262 -0.4437 3.5661 -0.7683 0.9013 -4.4491 0.7974 0.1162 -1.7782 1.0587 -0.5134 1.5190 -2.5185 0.4444 -2.8061 -6.2451 -0.2482 -5.3807 4.3354 -2.8532 -0.9146 1.7885 4.2910 -5.0071 2.3421 2.9637 -4.8105 0.4555 4.4670 -5.0449 1.5221 1.9080 -4.6628 -0.4312 3.3296 -4.8745 -0.8419 -3.2931 5.5817 3.0645 0.6953 4.2381 1.5216 -0.6385 -0.7897 -1.1266 0.7714 -2.9818 1.0496 -0.0119 2.8761 -4.6807 0.7817 -3.5693 1.5271 0.2163 0.4493 -0.3420 -0.3700 -2.3857 -3.5396 1.3621 -3.0077 0.0809 2.1020 -4.6735 -1.4226 -2.4143 4.6990 -0.2178 -0.4450 3.6253 -0.5022 -1.9568 3.5786
1.4088 -2.0258 5.3044 0.0809 -2.7825 3.5541 -0.9539 -0.0430 3.5070 0.2011 0.3600 5.2965 4.4302 -3.1921 0.1627 -2.7448 -2.9785 4.7294 1.7175 0.9561 0.9340 -0.4511 -1.2213 -3.0452 -4.0060 1.0108 -2.4193 -1.3358 -1.3992 6.6728 5.5776 -2.4261 4.9152 6.2618 -1.5725 3.8728 4.8740 -1.5788 5.9494 -6.1804 -0.6396 -5.4369 -4.3637 -0.2734 -6.8426 2.7999 -2.2801 -1.4488 5.3554 -0.5337 3.2437 3.9921 -0.4995 5.3563 2.2991 -0.8558 -1.3953 -5.8179 0.5401 -4.5528 -3.9019 0.9343 -6.0452 3.0539 -1.4849 3.2372 -0.1786 1.8730 -3.8440 0.0606 0.1109 -1.2173 1.1658 -1.1435 1.7541 -2.2521 0.6058 -3.8547 -5.7847 -0.3759 -6.7810 4.1508 -2.3593 -0.8405 -0.8977 6.0981 -3.8745 0.0803 5.5136 -2.9745 -1.5930 5.3117 -4.7153 0.2857 4.1839 -2.9720 -1.3617 3.8781 -4.7227 -2.5862 -1.6964 4.7565 3.9695 -0.4425 3.8431 1.0155 -0.7826 -0.5930 -1.1784 1.0898 -3.0121 1.6298 -0.9750 3.1225 -4.4087 0.8400 -4.6890 1.3345 -0.1970 0.7640 -0.4963 -0.1434 -2.4582 -3.5855 0.8492 -3.5663 -0.4796 3.3307 -3.8662 -1.4681 -1.3037 5.4548 0.6810 -1.6340 4.1419 -0.3996 -0.6458 4.5948
2.1057 0.8552 3.9215 2.4619 0.0407 1.7640 2.0372 -2.5832 2.9838 2.0441 -1.6124 4.9260 -1.8948 -5.6984 2.7323 4.9788 -3.4236 3.6322 -2.2901 -1.2029 1.7829 -1.8285 -1.8385 -2.9419 -2.3149 2.1112 -2.7048 4.6316 -0.5457 4.2222 -2.6546 2.4699 6.1399 -3.4154 2.0604 4.8960 -1.2530 2.9387 5.8273 -3.6941 1.5861 -6.7273 -4.3537 3.4121 -5.4429 -1.6583 -4.5086 0.5801 -2.5332 1.8000 3.6931 -0.4591 1.8581 5.1294 -0.6546 -3.5509 -0.0200 -2.2483 1.7246 -6.2804 -2.9352 3.6554 -4.9551 -0.3861 0.9438 2.8310 0.9763 -0.4111 -3.6552 -0.5195 -1.3638 -1.0918 0.0251 -1.1516 1.6479 -1.2178 0.5576 -4.0037 -4.3211 2.8664 -6.7604 -1.1361 -5.0211 1.8705 4.0729 2.5370 -3.4386 3.9282 1.5283 -2.4035 3.2221 2.5618 -4.4798 2.9454 0.6135 -2.4825 2.1656 1.5696 -4.5699 4.6055 -2.4273 2.8996 -1.2409 1.1071 4.0683 -1.2490 -2.1655 -0.1393 -0.3113 0.0491 -2.9997 0.3376 -0.3916 2.8470 -2.1800 2.4208 -5.0070 -1.2401 -1.4516 1.1944 -0.9875 -1.1482 -2.3722 -1.9450 1.7236 -3.8146 2.0225 0.6434 -3.6046 4.0128 -1.4290 3.6348 1.8585 -0.2278 3.0268 2.4907 -1.4812 3.6437
1.2026 -1.2761 5.2233 -0.1818 -2.4250 3.7287 -0.6810 0.2249 2.5963 0.4014 1.0781 4.2750 2.4407 -5.5982 -0.4120 -2.6624 1.8143 4.6973 2.4799 0.0211 0.3546 -1.1293 -1.6611 -2.6538 -3.9976 0.1875 -2.6797 -1.6125 -0.8050 5.7778 6.2823 0.0286 4.8786 6.0396 0.2162 3.3989 6.0432 -1.3974 5.3264 -4.0278 -0.1135 -6.9879 -5.9915 -0.2249 -5.7411 1.8308 -3.7000 -1.8657 4.6430 -0.1890 2.9758 4.9712 -2.1208 4.5388 2.2085 -2.2669 -1.5758 -3.4972 1.0401 -6.1530 -5.5633 0.9389 -4.8620 2.9189 -1.9802 3.1781 -0.1011 1.7650 -3.0667 0.5579 -0.4850 -1.6067 1.2039 -1.5074 1.5483 -2.0540 0.5740 -3.8544 -5.4515 -0.0598 -7.0511 2.8121 -4.6118 -1.2289 -0.9953 5.6708 -1.5672 -1.2553 5.3194 -2.9518 -0.4633 4.7640 -0.7285 -0.9661 4.0853 -3.4003 -0.1444 3.4323 -1.2131 -2.6454 0.5941 4.2733 3.9719 -1.1759 3.9093 1.0953 -1.5717 -0.8212 -1.1834 0.7612 -2.7136 1.6857 -1.1536 2.8681 -4.1174 1.0336 -4.8399 1.6804 -0.9088 0.4004 -0.5970 -0.5952 -2.3532 -3.4355 0.5566 -3.7133 -0.4010 3.1022 -2.4922 -1.5760 -0.1243 4.7567 0.5870 -1.2448 3.9368 -0.3253 -0.0118 3.8907
1.7909 -1.2956 5.5996 -0.0690 -2.2080 4.5392 -0.6654 0.0991 5.6645 -0.5959 0.3722 3.5159 -1.4089 -4.3804 -3.1110 1.8568 1.7821 6.8284 2.0612 -0.3160 0.4442 -2.7907 -0.8410 -0.7056 -3.8191 -0.3504 -4.1820 1.9682 1.6281 3.8907 6.6504 -3.3525 4.1248 6.3278 -3.2374 2.6525 6.0742 -2.1592 4.8513 -0.7739 1.1754 -7.4881 -3.0707 1.2540 -7.9610 -0.0460 -3.7070 -1.1576 4.8318 -3.2131 2.4319 4.5705 -2.1443 4.7055 0.5676 -2.3272 -1.2466 -0.9831 1.0195 -5.9950 -3.1796 0.2403 -6.8326 2.6386 -2.5320 3.2424 -1.3269 2.1764 -1.8877 -0.5540 -0.2328 -0.7315 0.8419 -1.4897 2.0377 -1.7512 0.3439 -3.4537 -1.8363 1.9568 -8.0180 -1.3138 -3.7757 -1.9268 -3.5662 5.7889 -2.3629 -3.5957 5.0596 -1.1077 -2.8447 5.3223 -3.3973 -2.9059 3.9116 -0.9789 -2.0916 4.0899 -3.2565 0.9774 2.0598 5.9236 4.1073 -2.1654 3.2595 0.0034 -1.4343 -0.1652 -2.1127 0.9161 -2.1796 1.7228 -1.3243 3.1804 -2.3297 0.5592 -5.7053 1.0977 -0.9977 0.7757 -1.8701 -0.1508 -1.1380 -2.7155 0.1402 -4.4313 -2.1374 3.4009 -2.1025 1.1565 1.3397 4.7666 0.9139 -1.1745 4.4819 0.1948 0.1729 4.6060
-0.1788 -2.6868 3.6391 -0.8885 -0.6836 2.6561 0.4926 0.6890 4.6673 1.0997 -1.1725 5.6022 4.6987 -4.1623 -0.7222 -3.0435 0.5498 5.8310 1.4522 0.6838 0.5019 -0.9969 -1.5478 -3.1215 -3.8145 2.4609 -3.3205 -1.3190 -1.4208 6.5612 6.4892 -0.9122 4.7174 6.1460 -0.6601 3.2635 5.4743 -1.7702 5.4390 -5.0352 -0.8972 -6.1885 -5.8967 1.2340 -6.5485 2.6419 -2.9720 -1.3960 4.9019 -1.3892 2.8066 4.0601 -1.2960 5.1895 2.3058 -1.5192 -1.6372 -4.9782 -0.6920 -4.6847 -5.8657 1.5669 -5.0674 2.5615 -1.9796 3.3462 -0.6368 1.7037 -3.9155 0.3087 -0.1655 -1.7949 1.3442 -1.4836 1.3274 -2.7079 0.4630 -3.6725 -6.1291 -0.1608 -6.7310 4.1153 -3.1316 -1.3343 0.3134 5.4781 -2.1256 1.1274 4.3043 -1.8676 -0.7475 5.3960 -2.9480 0.8112 3.1283 -2.4378 -1.0855 4.1271 -3.5678 -2.2153 0.0281 4.9893 3.7322 -1.1041 3.7224 0.9802 -1.1653 -0.9964 -1.4816 0.8320 -3.0035 1.4506 -1.1525 2.7323 -4.9028 0.7265 -4.3893 1.2717 -0.5191 0.3399 -0.7250 -0.4402 -2.6691 -3.8063 1.3075 -3.7545 -0.3564 3.0288 -3.2983 -1.2042 -0.7062 5.5664 0.1119 -1.3047 3.4627 0.1246 -0.6125 4.8313
0.0619 -3.9527 3.9895 -1.4489 -2.6040 2.8476 0.3857 -1.9354 5.8505 -1.6398 -2.6648 5.6087 5.3324 -2.0513 -0.9252 -0.4035 1.4484 4.0295 -0.4721 0.0336 1.3459 0.0578 -0.7297 -3.3670 -3.2817 0.7573 -1.8584 -2.3987 -0.2690 4.7266 5.2182 -1.4826 2.5417 4.4402 -0.1886 2.5963 5.5200 -2.0070 3.9248 -4.7635 -1.0995 -5.7526 -6.5223 -0.1258 -4.4672 3.0396 -1.3016 -1.4230 3.3217 -0.1860 3.6167 4.2770 -2.2227 4.7637 2.2491 -0.3386 -0.5695 -3.9341 0.0981 -5.3407 -5.4425 -0.0673 -3.4039 2.2462 -2.4566 3.3593 0.1900 2.1927 -3.9829 -0.0080 0.2138 -1.2457 0.7679 -1.9081 1.5437 -2.0265 1.2198 -3.7434 -6.1576 -0.8472 -5.6383 4.4899 -1.0669 -1.2386 0.5754 6.3995 -3.2909 1.0939 5.4409 -2.3320 -0.0492 5.9711 -4.4021 0.9545 4.1216 -2.5541 -0.2030 4.5473 -4.6410 -0.2052 0.4612 4.8389 3.0307 -1.5265 4.2568 0.7973 -0.7638 -0.5540 -0.7925 1.5138 -3.0539 0.8821 -1.9119 2.9850 -4.2066 0.4409 -3.9581 0.2974 -0.7964 0.8706 -0.1988 0.2002 -2.6106 -3.1757 0.8003 -3.0859 0.2651 3.6576 -3.7472 -1.1923 -0.4955 4.8073 -0.2943 -2.6063 3.6861 -0.6768 -1.9126 4.9967
0.4916 -3.3212 4.3150 -0.9752 -2.0318 3.0405 -0.1579 0.1711 4.7393 0.8307 -1.2616 6.0354 5.4337 -2.4235 -1.9144 -2.1552 -2.3877 7.6540 0.1737 0.4164 1.2561 -0.0780 -1.4674 -3.2367 -3.2474 2.4244 -3.5168 -2.5309 -0.9039 5.3691 5.4005 0.8020 5.3563 5.3552 0.8528 3.8456 5.4841 -0.6184 5.8668 -5.8936 -1.0575 -5.3753 -6.5769 1.1547 -5.5526 3.0947 -1.6852 -1.6750 4.3296 -0.0806 3.2357 4.4470 -1.5395 5.2600 2.4458 -0.5396 -0.9352 -4.6647 -0.7649 -4.5314 -5.7139 1.4671 -4.3408 2.7120 -1.9274 3.5687 -0.1588 1.2732 -4.4618 0.0975 -0.0962 -1.3678 1.2558 -1.5879 1.6771 -2.2855 0.3353 -3.6973 -6.1181 0.0200 -6.2783 4.5475 -1.4318 -1.8211 0.0270 5.5512 -4.6024 -0.5722 4.7896 -5.6833 0.5535 4.9149 -3.5410 -0.6117 3.4465 -5.6201 0.5211 3.4649 -3.4768 -1.4684 -2.5692 6.5751 3.5329 -0.8631 4.2590 1.0161 -0.9032 -0.5962 -0.9743 0.7750 -3.2858 1.3640 -1.4095 3.1099 -4.5129 0.6616 -4.3022 0.7635 -0.5855 0.8611 -0.2820 -0.4055 -2.6582 -3.3458 1.2265 -3.7940 -0.0571 2.7582 -4.4656 -1.5107 -1.5004 5.7104 0.1750 -2.0015 3.8850 -0.1610 -1.1415 5.1100
0.5902 -3.7229 4.3886 -0.9796 -2.6771 3.0366 0.4965 -1.6187 6.1180 -1.4376 -2.5191 5.7354 5.4924 -2.1969 -1.6005 -3.1188 0.4412 5.0191 -0.2995 -0.0505 1.4048 0.0495 -1.4079 -3.1983 -3.0361 2.5701 -3.5531 -0.3523 0.6545 4.9236 6.1291 -0.5201 4.3649 5.2422 -0.1897 3.1864 5.5807 -1.7328 5.0812 -5.6852 -0.9455 -5.3186 -6.7262 1.0472 -4.6036 3.1111 -1.6081 -1.4440 3.8377 0.1307 3.6496 4.1871 -1.4582 5.6058 2.3865 -0.6066 -0.5822 -4.4039 -0.6358 -4.5688 -5.3426 1.6325 -4.8359 2.6082 -2.0476 3.7651 0.1829 1.4287 -4.1963 0.1054 -0.1599 -1.2348 1.2044 -1.7658 1.8243 -2.0450 0.4924 -3.7651 -6.7872 -0.3741 -4.6255 4.5505 -1.2642 -1.4648 0.0496 5.7060 -4.4201 0.6435 5.0481 -3.2698 -0.4380 4.9734 -5.4368 0.6820 3.7044 -3.2047 -0.3922 3.5247 -5.3701 -2.3476 -0.3884 4.3980 3.2357 -0.9254 4.5538 0.9426 -1.0279 -0.4353 -0.7814 0.8674 -3.1698 1.2231 -1.6673 3.2706 -4.3000 0.7858 -4.2966 0.5404 -0.8575 1.0167 -0.1735 -0.3780 -2.5704 -3.1170 1.3751 -3.8472 0.1198 2.9121 -4.2874 -1.0434 -0.3584 4.8366 0.0932 -2.4600 3.9501 -0.4775 -1.7299 5.1709
-0.3296 1.3139 4.1063 0.8976 1.8706 2.2164 1.9971 0.3372 5.2442 2.0747 2.4158 4.6356 -3.9885 -3.9788 -1.2618 4.7274 -0.7033 4.0231 1.9828 -0.4712 0.2475 1.8909 -0.3291 -3.7626 -2.2281 -0.8125 -3.5070 3.9173 1.8008 2.7820 1.0269 -4.7916 6.0366 1.1311 -4.8884 4.5292 1.4992 -3.4362 6.5178 -3.2858 1.8492 -7.0546 -3.8922 -0.4003 -7.4289 -2.2619 -2.3046 -0.7014 0.3410 -3.7834 3.8616 0.7032 -2.3298 5.8601 -0.7657 -2.4202 -0.5392 -2.0263 1.2201 -6.4869 -3.3109 -0.8608 -6.1061 -0.1193 -1.3689 3.7480 0.7894 2.1832 -2.8061 0.7345 -1.2432 -2.0033 0.0279 -0.5397 1.4877 -0.7203 0.8233 -4.1321 -4.3537 0.9386 -7.2897 -2.8660 -3.6557 -0.6194 -0.9679 5.1509 -0.2647 -0.4108 3.9317 0.2875 -0.9473 5.3555 -1.5935 0.1257 3.0059 -0.5270 -0.3717 4.3525 -2.4741 3.6991 -0.4370 3.2887 0.7829 -2.4185 4.3486 -0.1016 -1.0920 -0.8311 0.0030 0.8876 -2.8835 0.6403 -0.4714 2.7939 -2.3245 0.0879 -5.6344 0.7793 -0.6977 0.3371 0.9819 -0.2629 -2.9370 -1.7936 -0.0289 -4.3522 0.1257 3.2116 -1.9636 3.3284 0.8845 3.3511 0.7973 0.9646 3.3083 2.0610 1.1406 4.1489
1.5022 0.0459 5.2678 -0.5363 0.3344 4.1910 0.9337 2.5229 3.9961 0.8703 1.5367 2.0689 -3.1071 -3.9753 -2.9201 4.2977 1.5919 4.9862 1.8039 -1.8228 0.4509 -2.9813 -0.2596 -0.7073 -3.7320 0.1674 -3.9050 3.5242 0.9391 2.3123 3.9676 -4.8796 5.8033 3.3751 -5.3019 4.4751 4.1861 -3.3821 5.8364 -0.7557 -0.6309 -7.0103 -3.0019 -0.4592 -7.5813 -1.3606 -3.8048 -1.1595 2.0831 -4.5603 4.1995 2.8889 -2.6520 5.5651 -0.3151 -2.7135 -1.2347 -0.8478 0.5230 -6.0278 -3.2273 0.6962 -6.6202 0.9805 -2.3631 4.0223 -0.6512 2.2488 -1.6874 -0.6645 -0.3640 -0.7401 0.2268 -1.2227 2.0451 -1.5677 0.7280 -3.3503 -1.6687 -0.4211 -8.0850 -2.6159 -3.3838 -1.8315 -1.4726 6.4104 -2.1988 -1.8248 5.7280 -0.9667 -0.8808 5.7344 -3.1999 -1.5768 4.4131 -0.8315 -0.6086 4.3160 -3.0535 3.5039 2.2531 4.2112 2.3052 -3.0603 4.2266 -0.5358 -1.6761 -0.1546 -1.7947 1.3250 -2.0541 1.1240 -1.1092 3.1791 -2.2185 0.6940 -5.5813 0.6462 -1.5885 0.7812 -1.8920 0.1635 -1.0899 -2.5981 0.5039 -4.2517 -0.9749 3.6754 -1.9288 2.9198 1.4767 3.2371 0.8677 0.1685 3.9969 1.4036 1.4345 3.3190
-1.4628 0.2056 2.8069 -0.5637 -1.0533 4.5663 -0.3237 -3.1617 2.5514 -1.5574 -1.9394 1.2418 4.6741 -3.9805 1.5032 -2.8263 -4.7920 2.9248 3.0652 -0.0006 0.8103 -0.3880 -1.7915 -2.2166 -1.6715 1.0769 -0.4790 -3.5104 -1.8845 3.3538 4.1978 3.0816 3.5749 3.3533 3.1008 4.8285 4.3272 1.7021 2.9673 -5.4000 0.3241 -2.7493 -5.4292 0.7971 -0.4759 3.7772 -3.3271 -0.7003 2.0234 2.4205 4.5955 3.5778 0.6218 3.7199 3.4697 -1.9290 -1.1801 -4.2719 1.3125 -3.0015 -4.3481 1.8539 -0.6170 1.2046 0.8292 2.9165 0.1557 0.4817 -4.3634 1.5331 -0.5909 -1.7202 0.9878 -0.9451 1.2670 -1.6427 0.5796 -2.7275 -6.2141 0.7694 -1.6663 4.7945 -3.2741 0.3788 0.8715 4.3604 -6.0294 1.9623 3.5742 -5.4816 -0.3813 3.8716 -6.0230 1.7200 2.3602 -4.9548 -0.6424 2.5582 -5.4631 -2.4705 -3.8912 3.7808 2.1548 1.0016 4.0784 2.0732 -1.5247 -0.7602 -0.2057 0.5273 -2.8917 0.8081 -0.6184 2.6701 -3.5305 1.5654 -1.7774 2.1322 -0.7429 0.5254 0.2690 -0.7555 -2.2505 -2.2364 1.0738 -1.5751 0.3624 1.8417 -4.9272 -2.5282 -2.6178 3.2671 -0.6309 -0.9007 3.1494 -1.2591 -2.1698 2.5529
0.8109 1.1450 3.5706 1.0306 -0.5125 5.1897 -0.8037 -2.0555 3.5703 -1.0918 -0.3235 2.2955 3.7567 -3.4767 -1.4217 -2.2265 -0.4596 6.6875 2.4791 1.0688 1.0037 -0.2146 -0.9232 -2.8264 -3.5256 -0.1068 -2.2220 -2.1239 1.0646 4.4018 6.0315 -3.8204 4.3269 5.9218 -2.6100 3.4239 5.0017 -3.7627 5.4355 -4.9048 0.1531 -6.4868 -6.1155 -0.8015 -4.7438 3.0499 -1.3735 -2.4997 4.5235 -2.4921 2.8553 3.6019 -3.6235 4.8747 2.8708 -0.1813 -1.5874 -3.5522 0.0094 -5.8120 -4.8155 -1.4495 -4.2884 2.1014 -2.3553 3.3857 -0.2206 2.4179 -3.3095 0.5628 0.5069 -1.1817 1.4480 -0.9420 1.5430 -2.0332 0.8605 -3.6923 -5.9061 0.3852 -5.5021 4.0749 -2.2954 -1.9526 -1.5060 6.4181 -2.4752 -1.1971 5.9920 -3.8281 -1.3872 5.5528 -1.4526 -0.8046 4.7271 -4.0632 -0.9406 4.1945 -1.7027 -2.1609 -0.9709 5.5033 3.4949 -2.4157 3.9664 1.6284 -0.3608 -0.7422 -1.0913 1.3340 -2.7019 1.7610 -0.9457 2.9519 -3.6759 -0.5799 -4.4902 1.9172 0.0274 0.6812 -0.2134 0.1751 -2.2770 -3.1205 0.0573 -3.3742 -0.6866 3.7871 -2.9603 -1.7213 -0.0885 4.5439 0.7084 -0.2553 3.8247 -0.7362 -0.6953 3.5583
0.9893 1.2682 3.4418 1.2278 -0.1305 5.2852 -0.8883 -1.7091 4.1021 -1.1443 -0.1760 2.5869 4.9853 -3.0125 -2.4650 -1.4982 0.7419 7.0218 2.4018 0.5959 0.7915 -0.8527 -1.5298 -2.5615 -3.4417 2.2689 -3.8134 -2.0861 1.4959 4.4257 5.9366 -3.1081 4.9637 5.6708 -3.3048 3.4884 4.8699 -3.7526 5.8187 -5.2669 -1.3173 -4.7463 -6.2961 0.7587 -5.0326 2.6158 -2.3872 -2.1405 4.2683 -2.9180 3.0654 3.4583 -3.4245 5.3758 2.4304 -0.9969 -1.5822 -4.0095 -0.8440 -5.4581 -5.0922 1.2958 -5.7919 1.9519 -2.3356 3.7471 -0.0687 1.7552 -3.3806 0.2267 -0.0580 -1.1348 1.2476 -1.1831 1.7337 -2.0300 0.4467 -3.9640 -6.4132 -0.6443 -5.2647 3.8711 -2.4464 -2.9292 -0.7648 5.8984 -2.5340 -0.4328 5.4499 -3.8739 -0.8258 5.0136 -1.5231 -0.2108 4.1446 -4.1123 -0.5707 3.6076 -1.7762 -1.7081 -0.0934 6.0596 3.3881 -2.4608 4.2095 1.2442 -0.9639 -0.6418 -1.1753 0.8515 -2.8665 1.6910 -0.9891 3.0994 -3.8970 0.5996 -5.3595 1.7010 -0.4064 0.6860 -0.5880 -0.3839 -2.2088 -3.1562 1.1805 -4.3172 -0.3023 3.1830 -3.0256 -1.5459 0.4599 4.8104 0.7937 -0.0585 3.9288 -0.7043 -0.3815 3.8621
1.9053 -2.6866 4.0029 0.7057 -3.3744 2.1351 -0.6121 -2.1755 5.2490 -0.1139 -4.2204 4.7334 5.2971 -0.4496 2.4440 -3.6192 -1.9276 3.1164 -0.4849 -0.3556 0.2851 0.8841 -1.2515 -3.0927 -2.7121 1.5868 -4.9613 -2.2546 -4.2884 3.2233 3.9509 1.6962 6.0313 3.6788 0.2167 6.1986 3.6586 2.1618 4.6208 -5.3319 -0.3899 -1.8959 -6.2878 0.6345 -3.7399 4.0929 -0.1486 0.3116 2.2585 -0.1166 5.7973 2.2538 1.7893 4.1928 2.9164 0.7209 -0.0668 -4.0995 -0.8210 -2.6693 -5.1222 0.2680 -4.6397 0.5952 -0.0440 3.9616 0.2363 1.0356 -4.8843 1.1240 0.5627 -1.6643 1.2973 -0.7209 1.7085 -1.6150 0.0651 -3.6106 -6.4654 -0.3821 -2.7582 4.6935 0.3555 1.5699 0.9876 5.1807 -5.6537 2.0166 4.3267 -5.0877 -0.2172 4.6708 -5.9637 1.7567 3.0312 -4.8357 -0.4845 3.2673 -5.7193 -2.3323 -1.9822 3.0200 2.0086 0.3049 4.3650 1.7724 -0.1330 -0.5740 -0.3583 0.7807 -3.5101 0.5139 -1.0834 2.8597 -3.9355 -0.0034 -3.8542 0.7247 -0.3768 0.5012 0.5946 -0.1095 -2.7493 -2.7460 0.6303 -4.1853 0.4450 2.4861 -5.1395 -1.7869 -3.1723 3.4448 0.6798 -2.5401 3.2928 -0.4691 -3.0188 4.1901
0.1383 -2.1447 4.4603 -0.0687 -3.2314 2.4194 -2.3964 -2.2812 3.0405 -1.5750 -0.9063 1.5790 4.9972 -3.6966 0.1922 -2.3737 -0.5107 5.8895 1.8337 0.8677 0.4417 -0.4561 -1.5465 -2.9267 -2.6637 1.0054 -1.1593 -1.0494 0.8983 3.7121 4.7262 -0.6109 6.3098 5.0098 0.3426 5.1663 3.3692 -1.2779 6.2178 -6.5018 -0.3334 -2.2173 -6.0971 0.3502 -4.3952 3.8565 -2.2855 -1.4759 4.3834 -0.1329 3.8733 2.3956 -0.4578 5.4014 3.2972 -0.8848 -1.5334 -5.3981 0.5798 -1.7107 -4.7995 1.0695 -4.0649 2.4122 -1.4035 3.1030 -0.1816 1.2647 -4.5926 1.1205 -0.0357 -2.1313 1.1708 -1.2804 1.0308 -2.1640 0.5443 -3.3649 -6.2606 -0.7812 -3.5462 4.5598 -2.4959 -0.1870 1.4593 5.2269 -4.7835 1.0046 4.5331 -5.9740 1.3694 4.6301 -3.5820 0.4843 3.2966 -5.8760 0.8231 3.2889 -3.4792 -2.7508 -0.3278 4.6677 2.8759 -0.2596 3.9769 1.8184 -0.8984 -1.2133 -0.7591 0.8350 -3.2602 1.0667 -1.1019 2.4689 -4.3722 0.7945 -2.7058 1.6115 -0.3053 0.1606 -0.0467 -0.4015 -2.7706 -3.0354 0.8312 -2.3216 0.3752 2.6493 -4.5770 -1.6977 -0.1415 3.8032 -0.0658 -1.9578 3.0630 -1.4454 -1.3170 2.8711
-0.2727 0.9438 2.0394 0.8515 0.8498 4.0693 -0.3191 -1.8798 4.2445 -1.5397 -1.3348 2.5371 4.0121 -5.0876 -1.4715 -1.2219 0.2076 6.6338 3.3952 -0.2036 0.3116 -0.0340 -1.6261 -3.3321 -2.6321 0.6569 -1.1599 -2.4864 0.8692 4.0693 4.6983 -2.2517 6.3367 4.2662 -3.4029 5.4570 3.6693 -1.1425 6.4009 -5.4163 1.4778 -4.8093 -6.4010 1.5993 -2.7149 3.1757 -3.0550 -2.5841 3.9390 -2.9335 4.0558 2.5563 -1.3004 5.3896 3.2459 -1.6429 -2.0592 -4.4673 0.4085 -4.2907 -5.3015 0.8373 -1.9975 1.9194 -1.9386 3.0855 -0.0252 1.3736 -4.4042 1.2653 -0.2521 -1.9851 1.3012 -0.9664 0.9599 -1.9272 0.3096 -3.3270 -5.8538 2.3621 -3.7845 4.2457 -3.8698 -1.9614 -0.4772 5.6346 -4.4267 0.7472 5.0200 -3.9457 -1.4803 4.8653 -4.8852 0.8708 3.6803 -3.9392 -1.3450 3.4199 -4.8864 -1.8421 -0.5346 5.7779 3.0777 -1.6850 4.0196 1.9784 -1.3066 -1.3034 -0.5600 0.7294 -3.1408 1.4674 -0.6871 2.3674 -4.1872 0.5565 -2.8743 2.3262 -0.7498 0.0556 0.2237 -0.5271 -2.8513 -2.8942 0.5174 -2.3561 -0.2251 2.8482 -4.4082 -1.7831 -0.0446 4.4936 0.2953 0.0662 3.0145 -0.8354 -0.8108 3.5799
-0.4424 0.8738 2.1241 0.6088 0.8403 4.1967 -0.2590 -1.9986 4.2610 -1.4623 -1.5519 2.5123 2.7868 -4.3680 -3.3902 -1.5101 -0.0841 6.6541 3.3986 0.1548 0.5367 0.2737 -1.5474 -3.2660 -2.4045 -0.0823 -1.2193 -2.7068 0.5017 4.0500 4.6515 -2.0304 6.5742 5.2004 -2.3631 5.2023 3.7091 -0.8472 6.5039 -5.6942 0.9098 -4.5264 -6.4243 0.5355 -2.3661 3.4412 -2.0104 -3.1341 4.0834 -2.6119 4.2107 2.5897 -1.1197 5.5220 3.5437 -1.2539 -1.8314 -4.3768 0.2002 -4.2507 -5.1011 -0.0461 -1.9012 2.0083 -1.7788 3.2039 0.1258 1.4633 -4.3521 1.4143 -0.0574 -1.8932 1.3692 -0.8329 1.0648 -1.7739 0.2542 -3.4114 -6.2135 1.5340 -3.3576 3.6352 -3.4612 -2.9045 -0.6626 5.6752 -4.3633 -1.0319 4.8368 -5.4898 -0.0194 5.1404 -3.3108 -0.7610 3.5198 -5.4656 0.2854 3.7208 -3.2898 -1.9871 -0.8750 5.7517 3.1387 -1.4275 4.1409 2.1898 -1.0475 -1.1763 -0.4466 0.7572 -3.1389 1.4502 -0.5705 2.4842 -4.0307 0.2166 -2.8406 2.4032 -0.4873 0.2122 0.4290 -0.4246 -2.7949 -2.7119 0.0985 -2.3992 -0.1007 2.9341 -4.3107 -1.9291 -0.3452 4.4833 0.1800 0.0344 3.0995 -0.8661 -0.9784 3.5958
3.4276 -0.3074 4.1960 1.1532 -0.8770 4.1722 0.8527 1.4055 2.4062 2.9363 1.8965 2.7558 -2.2961 -5.1553 1.0567 -0.5576 1.6036 5.3993 2.1181 -0.8709 -0.7673 -2.8210 -0.4341 -1.1207 -3.9071 1.4356 -4.2759 2.3432 2.0646 5.5204 2.8687 -4.7429 5.4690 4.1789 -4.8626 4.7202 1.6730 -4.7965 4.5393 -1.1444 -0.1382 -7.7673 -2.9796 1.1157 -8.3870 -0.4007 -3.9033 0.1053 4.3217 -3.8484 3.6032 1.8583 -4.0041 3.2595 -0.1572 -2.9302 -1.0244 -1.1225 0.4845 -6.3824 -3.1922 1.7064 -7.0042 3.1951 -2.2262 2.1079 -0.6583 2.2277 -1.9474 -0.5588 -0.6062 -1.5815 1.1868 -1.0762 1.3534 -1.6954 1.0054 -3.7772 -2.4641 -0.2066 -8.2918 -1.8175 -4.3398 0.1169 -2.1012 5.8847 -0.2621 -1.8483 4.7257 0.5747 -1.8820 5.8210 -1.5877 -1.3981 3.5838 0.0250 -1.3936 4.5897 -2.1826 0.2124 2.3725 4.7033 3.0477 -3.0766 3.3444 -0.2013 -1.5069 -0.5142 -1.7908 1.3213 -2.3747 2.4070 -0.9263 2.1136 -2.4096 1.0297 -5.9906 1.1670 -1.1020 -0.0281 -1.7905 0.0130 -1.6198 -2.7570 1.1963 -4.6497 -1.1777 3.5101 -1.4095 1.5063 1.9137 4.6335 2.2045 -0.2287 3.4638 1.8640 1.2591 3.3064
-1.9863 -0.7655 2.7498 -1.1301 -1.1354 4.8839 0.3226 -3.3437 3.6917 -0.7493 -3.0118 1.8353 6.3227 -0.7597 -1.1697 -1.6943 -5.3505 5.0128 0.0769 1.2737 0.8945 0.1987 -1.1869 -2.6868 -2.0690 2.0774 -1.2858 -3.0647 -3.6920 3.0438 5.0686 1.6239 4.4413 4.2079 1.8430 3.2169 4.2022 1.4237 5.6667 -5.0123 -1.2362 -2.8504 -5.7644 -0.0660 -0.9777 3.9757 -0.8112 -0.4119 3.2669 0.6758 3.0239 3.2367 0.2712 5.4752 3.0165 0.3083 -0.0905 -4.3364 0.0608 -3.2669 -4.6328 0.9460 -0.9754 1.5379 -0.7885 4.0333 0.1471 0.9274 -4.7610 1.1111 0.6052 -1.5224 0.7477 -0.7755 1.7361 -1.7435 0.8751 -3.2318 -5.2688 -1.3142 -1.4520 5.3641 -0.2929 -0.3695 0.3237 4.5483 -7.0326 -0.4385 3.4035 -7.4969 0.9747 4.4936 -5.8571 -0.4975 2.2866 -6.7502 0.9340 3.2788 -5.0635 -1.8837 -4.0731 4.9873 2.3821 0.4543 4.2349 1.5985 -0.1227 -0.3793 -0.3213 1.0841 -3.3303 0.3588 -0.5463 3.1087 -3.7757 0.7598 -2.1275 0.7224 0.2351 0.7978 0.3342 0.0166 -2.4963 -2.4994 1.3161 -2.1535 0.2104 2.2244 -5.4826 -2.0398 -3.5831 3.7132 -0.9024 -1.3272 3.4901 -0.8320 -2.8306 3.1843
3.2537 0.3810 2.9261 1.8902 1.2256 1.2285 1.3653 -1.6218 0.6681 2.9558 -2.1008 2.0616 -6.4651 -2.4872 1.3369 3.4512 -2.2342 -1.5272 -1.6012 -1.5401 3.4028 -3.3678 1.0111 -0.6691 -2.6101 0.7863 -4.6368 4.6578 -0.3768 0.4735 2.1743 2.0250 6.8001 0.7458 1.7526 7.2134 2.9908 0.7546 6.7656 0.3924 -2.4076 -5.4161 -0.5340 -1.2139 -7.1803 -4.2747 -2.1999 0.2278 0.1341 0.5334 6.5528 2.4081 -0.2968 5.8450 -3.0454 -2.2349 1.1100 -0.9220 -2.4308 -4.6554 -1.8996 -1.1732 -6.5159 0.8596 0.7442 4.1763 -0.0157 1.0277 -1.6792 -1.7524 -0.5241 -0.0189 -0.3431 -0.0059 2.2263 -1.5474 -0.3848 -2.9590 0.1376 -2.4187 -6.8188 -5.4555 -1.6971 0.9711 1.1333 5.0318 -2.6504 1.6245 3.9024 -3.4193 0.2959 4.8322 -1.6172 1.2423 2.6526 -3.1032 -0.1039 3.4818 -1.2640 3.1324 -1.0521 -1.1130 0.9653 -0.0737 5.4444 -2.3858 -0.8739 1.2278 -1.4495 0.7335 -2.0589 0.9027 -0.1508 2.9537 -1.7591 -1.3229 -5.0818 -1.3967 -0.8824 2.3840 -2.2992 0.4318 -0.8517 -2.0043 -0.2190 -4.2598 0.3371 2.4369 -1.9878 3.5479 -0.8128 0.1755 2.1373 0.1100 2.0777 2.4969 -1.1182 1.2347
1.2836 2.0527 2.8192 0.8929 1.3655 0.6315 3.4290 1.0504 1.2848 2.4904 -0.8978 1.1865 -1.7083 -6.5424 -1.6381 4.2800 1.4518 4.3501 0.3011 -2.8735 2.1228 -1.1456 -2.1968 -2.9532 -2.5033 1.3453 -1.6545 2.4296 -0.8299 4.0960 -1.7958 -0.1324 7.1743 -3.0329 -0.0554 6.3077 -0.8624 1.0338 6.9350 -4.0477 2.5659 -6.0116 -5.3993 3.0184 -4.1852 -0.0528 -4.7238 -1.5584 -2.7334 0.1870 4.8427 -0.5949 1.3095 5.4698 0.4928 -3.9175 -0.4040 -2.8995 2.0002 -5.1944 -4.2041 2.8284 -3.2667 -1.0796 0.7587 3.1072 0.9403 0.0296 -3.7618 0.1871 -1.6297 -1.1358 -0.5063 -0.8385 1.4018 -1.4178 0.4641 -3.4844 -5.2880 2.2626 -5.3850 -0.6305 -5.9983 -1.0722 4.4924 2.0138 -2.4316 4.5444 0.6870 -3.0183 3.3105 2.6365 -2.2775 3.4089 0.0720 -3.3958 2.0887 1.9881 -2.7162 4.3154 0.3957 3.6081 -1.2558 0.3144 4.5399 -0.2922 -2.6328 -0.2091 -0.2245 0.0308 -2.7933 0.0516 0.0007 2.4427 -3.2421 1.8794 -3.7866 -0.1015 -2.1440 1.2183 -0.4734 -1.3824 -2.3266 -2.3768 1.2603 -2.8780 2.1306 0.7440 -3.2295 3.0645 -0.1056 3.3337 1.1819 0.9211 1.9550 2.5523 0.2333 1.9404
-0.5085 -2.9126 2.9536 -0.8661 -0.7210 2.2394 0.1541 0.0109 4.8950 -0.0738 -2.0727 5.4581 4.5335 -0.9617 -2.9745 -3.5379 -1.9657 5.9598 1.8056 1.3113 2.0442 -0.0466 -0.8412 -1.5864 -3.6419 2.0581 -2.7551 -2.5011 0.2085 4.5715 6.4251 -3.0751 3.5411 5.8887 -2.0475 2.5680 5.6386 -3.0511 4.8347 -4.7009 -2.1812 -4.6315 -5.7774 -0.3118 -5.5025 4.0506 1.0751 -1.6874 4.4211 -2.2954 2.3002 4.1616 -3.2671 4.5810 3.2737 1.4199 -0.4370 -3.7958 -1.4012 -3.6958 -5.3510 0.4356 -4.2487 2.1738 -2.6041 3.2901 -0.1196 2.0186 -3.3828 0.8610 1.1131 -0.7326 1.6820 -0.9621 1.5743 -1.9485 0.4929 -2.9147 -4.9346 -1.4170 -5.8091 4.4022 -0.3635 -1.7901 -1.6761 5.9531 -4.0380 -0.9959 5.6230 -2.7989 -1.8243 5.0201 -4.9952 -0.4998 4.3872 -2.6110 -1.2947 3.6840 -4.7919 -2.7291 -2.0599 4.9571 3.6164 -2.2616 3.5866 2.0733 0.5251 -0.2197 -0.9189 1.3046 -2.3095 1.3614 -1.3794 2.9185 -4.0405 0.0265 -3.7946 1.8478 0.3712 1.2571 -0.0005 0.3846 -1.5351 -3.2485 0.9431 -3.1018 -0.6620 3.3780 -3.6448 -2.0127 -0.9088 4.7288 -0.1455 -1.5501 3.1513 -0.5185 -1.1328 4.5785
0.0264 0.0261 4.6837 0.5445 1.2592 2.7699 2.7351 -0.6456 4.8791 2.2312 1.4543 5.0122 -5.4506 -3.9711 0.7261 5.1669 -0.1629 2.1577 0.4352 -0.7951 -0.0875 -3.1776 1.5752 -0.2377 -0.3305 2.6685 -4.5582 3.5123 1.9124 2.6979 2.8437 -5.8784 4.1096 1.5278 -5.6724 3.3880 3.8698 -4.8093 3.8049 -0.3116 -1.5376 -5.9135 0.4671 0.2092 -7.2132 -3.1480 -3.1139 0.9276 1.5554 -4.5539 2.3681 3.2434 -3.4374 3.8997 -2.3078 -2.5065 -0.1695 0.1860 -0.8979 -4.6254 1.1451 0.8810 -6.0354 1.0184 -2.4067 3.5107 -1.1067 3.1094 -1.5640 -2.0697 -0.2753 -1.0434 -0.4513 -1.2077 2.0110 -0.7795 1.1042 -2.9183 0.5369 -1.1993 -7.0070 -4.1737 -4.0115 0.3440 -3.1138 6.7573 -2.5936 -3.5400 5.9651 -1.4541 -2.0533 6.3690 -3.3236 -2.8953 4.8254 -1.1460 -1.3531 5.1423 -2.9847 3.9401 -0.3578 2.5095 2.1151 -3.2529 2.9058 -1.9626 -1.0701 0.1623 -1.7586 1.8735 -2.1676 0.8128 -1.1287 2.7202 0.4650 0.5175 -4.8065 -0.5266 -1.0076 0.6448 -2.3954 1.0632 -1.0383 -0.2501 1.5132 -4.1357 -1.7844 4.3729 -1.9681 3.3274 0.7482 3.0499 0.9166 0.1398 3.5760 2.3182 0.4127 4.1327
-0.3898 -1.4489 4.8660 -1.2346 -1.9713 2.7667 -2.1677 0.3581 3.5983 -0.7251 0.6885 2.0152 3.4793 -2.5231 -4.5332 -0.1055 1.3163 6.4226 2.8687 0.1148 1.1721 -0.1503 -1.3702 -2.7720 -3.0119 1.0721 -1.4490 0.9903 1.8041 3.8273 3.2295 -4.6914 6.0895 4.4098 -4.1447 5.3179 2.2063 -3.6250 6.4206 -5.4701 -0.6290 -4.7812 -6.5485 0.9939 -3.5508 3.5120 -2.1766 -2.0779 3.9639 -3.4014 4.0772 2.5273 -2.2689 5.8258 3.0949 -0.8403 -1.5033 -4.1737 0.1555 -4.6825 -5.2851 1.6662 -3.0442 1.6962 -2.6206 3.5045 0.3884 1.4788 -4.0018 0.8420 0.0057 -1.1813 1.1354 -1.3954 1.5129 -1.8028 0.6907 -3.3720 -6.3255 -0.4054 -3.6696 2.8334 -2.4458 -3.3699 0.2475 5.7328 -4.4383 1.2687 5.1033 -3.6206 -0.6531 4.9825 -5.0968 1.3036 3.7642 -3.5027 -0.6138 3.5368 -4.9726 -0.7395 1.6548 5.3497 2.9107 -2.3487 4.3622 1.8073 -0.9578 -0.7146 -0.4956 1.0202 -2.8575 1.0905 -1.3380 2.9604 -4.0922 0.9777 -3.4917 2.0195 -0.6617 0.7478 0.0615 -0.2598 -2.2904 -2.9686 0.9400 -2.6725 0.3110 2.9531 -4.1885 -0.0744 1.3122 4.1950 -0.3401 -1.1201 3.4808 -0.8300 0.3219 3.3228
0.1916 -1.1005 4.8960 -0.8946 -1.5823 2.8934 -0.0952 1.0782 2.0763 0.6869 1.4216 4.0693 3.7033 -4.0099 -3.8808 -3.3176 0.6399 2.4797 2.3832 0.6384 0.7180 -0.1648 -1.3030 -3.1595 -3.2065 0.0798 -1.4238 -1.9334 0.8471 5.0659 5.1995 -2.4855 6.4534 5.5592 -2.9420 5.0556 3.7282 -2.6326 6.7605 -4.9615 -1.0110 -5.0945 -6.0560 -1.2748 -3.0439 2.8392 -1.9441 -2.8686 4.3667 -3.1296 4.1421 2.8714 -1.9009 5.7531 2.9691 -1.1688 -1.5776 -4.5600 0.4106 -4.7412 -5.7089 0.1456 -2.6282 2.1360 -2.3589 3.4329 -0.2109 1.8253 -3.9674 0.8526 0.0703 -1.5897 1.3564 -1.3228 1.4110 -2.1655 0.5101 -3.4324 -6.1993 -1.3378 -4.4625 3.7065 -3.1442 -2.8659 0.4922 5.9182 -2.9034 1.4531 5.1674 -3.6922 -0.6409 5.3283 -2.4834 1.2153 3.8785 -3.9958 -0.9084 3.9460 -2.8331 -2.4778 1.5124 2.9307 3.3262 -2.0420 4.3129 1.6173 -0.9622 -0.9208 -0.9044 0.9871 -2.9134 1.4828 -1.1195 2.8456 -4.4935 0.5539 -3.2990 1.8448 -0.4373 0.4744 -0.0567 -0.2206 -2.5899 -3.2803 0.3452 -2.6250 -0.0086 3.2370 -3.5397 -1.6317 0.9984 3.8843 0.1254 -0.7982 3.5035 -0.2301 0.6894 3.3732
-0.6409 -0.8163 4.3739 -1.2452 -1.9580 2.4342 -2.0969 0.5953 2.5284 -0.6231 0.2890 0.9724 2.5976 -5.6536 -2.0083 -0.9350 3.5207 2.9115 2.7794 -0.1793 0.6870 -0.1871 -1.4747 -3.1846 -2.4993 0.9534 -1.1597 1.2644 1.6389 2.6291 2.4863 -3.5068 7.1632 3.1457 -4.0421 5.9090 2.4574 -1.9960 7.2271 -5.5584 0.2715 -4.2212 -5.9565 0.5818 -1.9408 3.1850 -3.4663 -1.0085 3.6301 -2.9579 4.9683 1.8929 -1.4063 5.9551 2.7543 -2.1542 -1.6310 -4.3075 1.1359 -4.2427 -5.0116 1.7750 -1.9958 1.5377 -2.4294 3.7254 0.4684 1.3886 -4.2199 1.1078 -0.3568 -1.6166 1.3134 -1.8270 1.4114 -1.7281 0.8345 -3.3264 -5.7020 -0.3770 -2.9627 2.2406 -4.5667 -1.3241 0.9997 5.6329 -4.3889 1.4011 4.8897 -3.2081 0.4546 4.9911 -5.4372 1.2372 3.5556 -3.1654 0.2578 3.5542 -5.3833 -0.6645 2.4510 3.5837 2.5746 -1.9043 4.6954 1.5727 -1.5296 -0.9162 -0.3221 0.9336 -3.0116 1.0726 -1.3566 2.7579 -3.9115 1.5446 -2.9083 1.9656 -1.0682 0.4628 0.1702 -0.4409 -2.6284 -2.6994 1.0914 -2.3681 0.6176 2.8652 -4.2860 0.0599 1.5444 2.8497 -0.3924 -0.9517 2.9763 -0.7632 0.3817 2.3223
1.0210 -3.4078 3.6767 -0.3582 -2.6469 1.9598 -1.3208 -0.7315 3.9772 -0.3118 -1.9431 5.4680 6.6168 0.7572 -0.0983 -2.8314 -4.5762 5.4721 -0.0915 0.3829 0.8595 0.4381 -1.5475 -2.5408 -2.5502 2.1638 -4.1513 -2.9649 -2.7759 3.4274 3.3229 2.1812 6.5792 3.7889 2.1385 5.1424 3.1587 0.8043 7.1857 -5.6696 -0.7971 -2.3715 -5.8777 1.5556 -2.5397 4.2774 0.4064 -0.7851 2.8551 1.3328 4.2661 3.0841 -0.3098 6.1651 2.9745 0.9565 -0.2592 -4.2262 -0.7411 -2.8336 -5.1566 1.2955 -3.8514 2.3517 -1.0666 3.9499 0.3007 0.2981 -4.8960 1.0153 0.4916 -1.5868 1.6435 -0.9416 1.6510 -1.7062 0.1063 -3.5222 -5.9825 0.4148 -1.6919 5.3988 1.2539 -0.3151 0.2203 3.7861 -7.3781 -0.4805 2.5741 -7.7620 0.9231 3.8246 -6.2321 -0.4445 1.4936 -6.9620 0.9715 2.6553 -5.3728 -1.7727 -4.1270 4.8844 2.3048 0.0840 4.9276 1.8543 -0.0229 -0.5297 -0.3241 0.5199 -3.5344 1.1645 -1.0814 3.0086 -4.0074 0.4393 -3.6506 1.0105 -0.1387 0.7196 0.4001 -0.3219 -2.5167 -2.7358 0.9991 -3.7917 0.3000 1.5402 -5.7142 -1.9907 -2.9856 4.1485 0.2554 -2.3051 3.2016 -0.8484 -1.9881 4.2168
1.3861 1.5321 1.6333 2.0938 -0.6670 1.3193 1.9120 -0.9739 4.1434 1.4484 1.1353 4.3477 -0.9656 -7.7450 -0.0318 5.1480 -0.3975 2.2467 -0.1640 -3.1535 2.1138 -2.3206 -1.5219 -2.1539 0.1859 2.5282 -2.8856 3.9437 1.7478 3.6105 -3.9900 1.1663 5.7358 -3.7688 -0.1891 5.0965 -2.6841 1.9194 5.8798 -4.2126 3.6712 -4.1493 -2.7672 5.0983 -2.8973 -1.0774 -5.3810 -0.7227 -3.0536 -0.0577 3.7671 -1.9882 2.0498 4.5414 -0.0534 -4.3197 -0.4036 -3.3326 2.5292 -3.6790 -1.7101 4.3764 -3.7117 -1.0577 0.8481 2.6010 0.5121 -0.8098 -3.8239 -0.2572 -2.0802 -1.2457 -0.5589 -1.0557 1.2282 -1.2570 0.7629 -3.2496 -4.1050 4.7927 -3.2787 -0.4394 -6.7189 -0.7014 4.4532 0.8678 -3.9137 3.6152 0.8470 -5.0993 4.0057 0.3365 -2.7623 2.3821 0.3129 -5.0432 2.6813 -0.2554 -2.7060 4.3887 -0.4950 3.2873 -1.7423 0.6832 3.9350 -0.7381 -2.9813 -0.2247 -0.3506 -0.2269 -2.7229 -0.0710 -0.2734 2.3411 -1.9432 2.9473 -3.6867 -0.4246 -2.4276 1.1556 -1.1148 -1.3316 -2.0331 -0.9210 2.1118 -3.2356 1.8901 -0.2467 -3.7952 3.5599 0.5902 3.4548 1.3798 0.2172 2.1784 2.0831 0.2371 3.5403
-0.4774 0.9171 1.8378 0.3537 0.9213 3.9958 -0.3941 -1.9078 4.0484 -1.3643 -1.6210 2.1314 4.5695 -4.5779 -2.8810 -1.9393 0.1427 6.1069 3.3318 0.4188 0.4370 0.0407 -1.8424 -2.6600 -1.6855 1.0783 -0.6483 -2.9686 0.3654 3.3483 2.2948 -3.0610 5.9276 3.7437 -3.1064 5.4982 1.8898 -1.6783 6.3856 -5.3695 1.7389 -3.2264 -5.2824 2.5989 -1.0721 3.7742 -2.2466 -2.9087 4.0980 -2.0811 4.4392 2.4096 -0.5657 5.4995 3.7728 -1.2279 -1.7934 -4.5165 0.5376 -2.8594 -4.4484 1.4371 -0.5661 2.0131 -1.5445 3.2219 -0.1618 0.6309 -4.5801 1.5748 -0.2271 -1.9996 1.4489 -0.8265 0.9845 -1.7808 0.2491 -2.7911 -6.1519 2.1403 -2.1043 4.7956 -3.2864 -2.6399 -0.2803 4.6862 -5.9502 -1.1528 3.6727 -6.5147 0.5975 4.3587 -4.9854 -1.0958 2.4075 -6.0625 0.6738 2.9884 -4.5109 -2.3295 -0.7507 5.2592 3.0401 -1.0258 4.2014 2.3907 -1.0982 -1.1890 -0.3931 0.4966 -3.0917 1.4227 -0.4427 2.3753 -3.7386 0.8234 -1.6685 2.4693 -0.4062 0.1490 0.3997 -0.6730 -2.5721 -2.3515 0.7487 -1.6310 -0.1569 2.0546 -5.0111 -2.1766 -0.3547 3.9509 0.0760 0.0997 2.8648 -0.9651 -0.9610 3.2551
1.9866 -3.3050 1.6599 -0.1434 -2.3744 1.4919 1.5168 -3.7306 4.3565 0.1033 -4.6536 3.0075 1.0481 6.1464 -0.0540 -0.8968 -1.7523 6.2287 -0.3587 0.6783 1.7182 0.5610 -0.6899 -2.2559 -3.1866 1.2265 -4.9503 -1.8202 -3.2723 4.1441 4.3999 -0.5032 7.3841 4.8818 0.0644 6.0702 3.6218 -1.7888 7.2147 -3.7021 -3.2770 -4.3772 -4.6678 -2.2279 -6.2130 1.0247 3.7205 -0.4913 3.7205 0.2922 5.1284 3.2716 -2.1163 5.7819 1.6185 2.5820 0.2987 -3.8400 -2.0389 -3.5065 -4.8833 -0.9394 -5.4420 2.8851 -1.3430 3.4879 -0.1333 1.4621 -4.3038 0.0067 1.1688 -0.9798 1.7289 -0.3326 1.6389 -1.8786 -0.0856 -3.5707 -4.7707 -3.3343 -5.3199 1.7039 4.9882 -0.1324 -0.5696 5.6913 -4.8476 -1.2784 4.7543 -5.6998 0.2563 5.2365 -3.8890 -1.1144 3.4306 -5.5265 0.4310 3.8078 -3.7027 -0.3364 -1.7545 5.0652 2.8394 -0.9287 4.9432 1.1528 1.1915 -0.0964 -0.9723 0.9607 -3.1416 1.5485 -1.2156 2.7790 -3.9423 -0.8593 -4.3442 0.7274 0.4980 1.1753 -0.0499 0.3634 -2.1024 -3.0159 0.1790 -4.3232 -0.2537 2.9366 -4.4643 -0.6799 -2.8322 4.2829 0.9751 -2.5789 2.3561 0.4842 -3.4446 3.5209
-0.2204 -1.2758 4.7273 -0.8481 -1.9481 2.5847 -0.3658 0.8476 1.8670 -0.0882 1.2761 3.9744 6.7970 -2.0467 -0.9266 -3.4981 -0.1300 1.6115 2.2716 0.9143 0.9786 -0.0995 -1.5192 -2.4420 -3.0219 2.4648 -2.8064 -2.7025 0.1955 4.4090 2.9037 -4.1579 6.2051 4.0631 -4.0504 5.2389 2.6843 -2.8696 6.9616 -5.7032 -1.0465 -2.5575 -6.5637 1.0115 -3.1901 4.3252 -1.9265 -0.9113 4.2862 -2.6554 4.6877 2.3731 -1.7151 6.0342 3.5778 -0.6420 -1.1849 -4.4099 -0.8198 -3.3184 -5.3258 1.3661 -3.9958 2.0833 -2.2375 3.6046 -0.1311 1.1375 -4.2183 1.3082 0.1110 -1.5795 1.5403 -1.2316 1.4893 -1.9884 0.3996 -2.8149 -6.7770 -0.3971 -3.2327 5.6477 -1.8816 -1.5827 0.7568 5.3012 -4.7258 1.7959 4.3541 -4.3632 -0.4995 4.8722 -4.9399 1.4987 3.0508 -4.2103 -0.8146 3.4623 -4.7954 -2.8992 0.8465 2.2083 3.0485 -1.7833 4.6782 2.1292 -0.7561 -0.7610 -0.6048 0.8255 -2.8094 1.3800 -1.0727 2.9269 -4.1879 0.5988 -3.5316 1.9968 -0.2356 0.6503 0.1983 -0.3408 -2.2687 -3.0604 1.2541 -3.0332 0.1330 2.5916 -4.4017 -2.1954 0.4435 3.3179 -0.1040 -0.9924 3.3336 -0.6893 0.4071 3.1124
0.7061 -3.6257 2.2340 -0.8440 -2.2114 1.2273 -0.3989 -2.8139 4.7372 -1.6560 -3.9151 3.3590 6.5681 1.6134 0.0164 -2.5026 0.2546 4.8189 0.1229 1.1376 1.2797 1.6223 0.3201 -3.2700 -3.2798 1.7984 -3.6409 -3.3186 -1.8947 3.3704 4.0932 -1.8272 6.1439 3.3743 -3.1521 6.0360 5.0141 -1.6175 4.9660 -4.2813 -1.5371 -1.3708 -5.8585 -0.4325 -2.6763 4.2620 0.7520 -0.1718 2.8680 -3.4636 4.6433 4.2594 -1.5839 3.6545 2.9852 1.5487 -0.0438 -3.2786 -1.5671 -2.5116 -4.9371 -0.4289 -3.8859 1.7815 -1.3524 3.8470 -0.2176 1.8881 -4.6986 0.9280 1.3701 -1.3224 1.4794 -0.7374 1.4811 -1.4509 0.4563 -3.1774 -5.6083 -1.5965 -1.8904 5.3576 1.4434 0.5488 -0.7087 6.0560 -5.5019 -1.7269 5.0987 -5.8947 0.4092 5.6399 -4.8805 -1.5592 3.7925 -5.6225 0.5936 4.2303 -4.5912 -1.6873 -0.3991 4.0601 2.9341 -2.3146 3.6600 1.8012 0.6772 -0.4012 -0.4741 1.5199 -3.2493 0.8406 -1.2603 2.6611 -3.5547 -0.5004 -3.4548 1.0194 0.4113 0.8617 0.7965 0.9741 -2.6395 -2.8043 0.6833 -3.4184 -0.3630 3.3467 -4.9272 -2.1533 -1.6322 3.6644 -0.0820 -2.4525 2.4112 -1.0711 -2.6966 3.5594
-1.2073 -0.4799 3.8597 -1.5967 -0.4322 1.5794 -1.0662 1.9849 2.2852 0.8035 1.2631 1.4717 4.1861 -5.1851 -1.0835 0.7565 3.7115 4.1541 2.8664 -0.5405 0.8946 -0.1956 -1.6856 -2.9930 -2.0883 0.9323 -0.8021 1.6665 0.8805 4.2198 -1.2267 -4.7381 5.2247 -0.2026 -5.4576 4.3728 -0.5678 -3.7528 6.1618 -4.8333 2.8342 -3.5502 -5.3005 2.7488 -1.2784 3.5028 -3.1113 -2.2286 1.0524 -4.6464 4.1096 0.1580 -2.6688 5.3942 3.3653 -1.7419 -1.6100 -4.3410 1.3990 -3.5692 -4.8234 1.3103 -1.1685 0.0293 -2.7279 2.9067 0.2227 1.1906 -4.3338 1.3471 -0.4278 -1.7954 0.7874 -1.5750 0.9548 -1.7584 0.5855 -3.0540 -5.8611 2.9685 -2.5711 4.4471 -3.9227 -1.4232 2.5818 4.7702 -4.2173 2.9638 3.6407 -5.0453 1.4810 4.6986 -3.4485 2.2227 2.5179 -5.0389 0.6655 3.4981 -3.4645 0.1611 2.6057 4.4574 0.8280 -3.1475 4.1200 1.9546 -1.5395 -1.1081 -0.3255 0.7303 -3.0010 0.4784 -1.3844 2.3623 -3.9007 1.0040 -2.2440 1.9544 -1.1543 0.3508 0.2564 -0.6068 -2.6238 -2.5434 0.8683 -1.9450 1.0289 2.4385 -4.2118 0.6993 1.5184 3.8111 -0.5951 -0.3009 2.5834 -0.0331 1.1272 2.5349

>  <OB_ATOM_TYPES> (1epoA1)
O.2 O.2 F F C.2 C.2 O.2 O.2 O.2 O.2 C.3 C.3 C.3 C.3 C.3 C.3 C.3 C.3 C.3 C.3 C.3 C.3 C.3 N.am N.am N.am O.3 C.2 C.ar C.ar C.ar C.ar C.ar N.am C.3 C.3 C.3 C.3 N.am C.2 C.2 C.2 C.ar C.2 C.3 C.3

>  <ENSEMBLE_RMSD> (1epoA1)
2.510 2.515 2.605 2.680 2.725 2.779 2.968 3.083 3.117 3.232 3.274 3.287 3.297 3.434 3.434 3.451 3.514 3.592 3.597 3.612 3.642 3.673 3.701 3.703 3.823 3.891 3.946 3.947 4.011 4.055 4.058 4.061 4.065 4.072 4.134 4.140 4.166 4.177 4.257 4.301 4.329 4.366 4.415 4.453 4.457 4.509 4.541 4.751 4.793 4.857

$$$$
