
 OpenBabel03071213D

 35 37  0  0  0  0  0  0  0  0999 V2000
  -31.4510  -26.3080   43.8470 C   0  0  0  0  0
  -37.4740  -26.8410   48.8390 C   0  0  0  0  0
  -41.6320  -31.9250   41.0790 N   0  0  0  0  0
  -34.9780  -28.8860   40.2120 O   0  0  0  0  0
  -40.1890  -30.2430   40.4180 N   0  0  0  0  0
  -32.8190  -28.8150   40.1510 O   0  0  0  0  0
  -36.6700  -29.3770   44.3390 O   0  0  0  0  0
  -35.9600  -32.9770   46.7400 O   0  0  0  0  0
  -34.1530  -33.0520   45.0940 O   0  0  0  0  0
  -37.5720  -31.9960   41.9920 C   0  0  0  0  0
  -38.0390  -32.1450   40.5680 C   0  0  0  0  0
  -36.1440  -31.6550   41.9980 C   0  0  0  0  0
  -33.9650  -26.7260   44.0150 C   0  0  0  0  0
  -35.1790  -27.3130   43.2720 C   0  0  0  0  0
  -37.3200  -29.0370   47.6640 C   0  0  0  0  0
  -32.5830  -28.3080   42.9540 C   0  0  0  0  0
  -35.3650  -27.4850   47.8910 C   0  0  0  0  0
  -39.4550  -32.4600   40.6590 N   0  0  0  0  0
  -36.4220  -30.1510   47.3630 N   0  0  0  0  0
  -36.2040  -31.9230   44.4240 N   0  0  0  0  0
  -32.3790  -29.3780   46.7280 C   0  0  0  0  0
  -33.1670  -28.4470   47.3480 C   0  0  0  0  0
  -32.9890  -30.4740   46.1930 C   0  0  0  0  0
  -32.7060  -26.8400   43.1660 C   0  0  0  0  0
  -36.6110  -28.0170   48.5360 C   0  0  0  0  0
  -35.5900  -31.1910   43.3390 C   0  0  0  0  0
  -33.7780  -29.0960   42.3050 C   0  0  0  0  0
  -34.9960  -28.7550   43.0340 N   0  0  0  0  0
  -40.4130  -31.5300   40.7300 C   0  0  0  0  0
  -33.8760  -28.8930   40.7810 C   0  0  0  0  0
  -35.7990  -29.6970   43.5510 C   0  0  0  0  0
  -34.5190  -28.6650   47.4570 C   0  0  0  0  0
  -35.1530  -29.8260   47.0650 C   0  0  0  0  0
  -34.3130  -30.7420   46.5010 C   0  0  0  0  0
  -35.1690  -32.1600   45.7160 S   0  0  0  0  0
  1 24  1  0  0  0
  2 25  1  0  0  0
  3 29  1  0  0  0
  4 30  1  0  0  0
  5 29  2  0  0  0
  6 30  2  0  0  0
  7 31  2  0  0  0
  8 35  2  0  0  0
  9 35  2  0  0  0
 10 11  1  0  0  0
 10 12  1  0  0  0
 11 18  1  0  0  0
 12 26  1  0  0  0
 13 14  1  0  0  0
 13 24  1  0  0  0
 14 28  1  0  0  0
 15 19  1  0  0  0
 15 25  1  0  0  0
 16 24  1  0  0  0
 16 27  1  0  0  0
 17 25  1  0  0  0
 17 32  1  0  0  0
 18 29  1  0  0  0
 19 33  1  0  0  0
 20 26  1  0  0  0
 20 35  1  0  0  0
 21 22  2  0  0  0
 21 23  1  0  0  0
 22 32  1  0  0  0
 23 34  2  0  0  0
 26 31  1  0  0  0
 27 28  1  0  0  0
 27 30  1  0  0  0
 28 31  1  0  0  0
 32 33  2  0  0  0
 33 34  1  0  0  0
 34 35  1  0  0  0
M  END
>  <MOLID> (1etrB1)
1etrB1

>  <SMILES_CANONICAL> (1etrB1)
NC(=N)NCCC[C@@H](C(=O)N1CC[C@H](C[C@@H]1C(=O)O)C)NS(=O)(=O)c1cccc2c1NC[C@@H](C2)C	

>  <FINGERPRINT> (1etrB1)
0001000000000001010000001001001000000011100000000101001000000010000000110001000000100001000000000000000110110001000011100000000000100000000010001000000110000000000000000000000100100000010000000000000000000010000000000000000000100000000000000010000000000000000000001110000000001010000100000000000001001000000010001101001000001000001100000010000000000100011100000000001111110000000000000000011000000000100100000001101000000000100000000000000000000001100000000111101000000000110000000000000000011100100000010000101000010000000001001010000100000000000000100000000000000000000000000000100001100000001000000000100000000000000000000110011000000001110000000001010000000001000000000011100000100101000011100011000100100011000000000000000000000001001110110101000000000000001111000000001000000000010000000000100010000001000000000000000100000100010000000000000000000000001000000001000000000000000100001000110010001000000000001000010000010000001000100000011000000000100010111010000000001000111000001000001000100000000000010010011001110000

>  <MACCS166> (1etrB1)
000000000000000000000000110000011000000000101000011010100111100100100000101111111001100101110110111001011101011100111111111100011110001111111101111111101111111110111000

>  <OB_MW> (1etrB1)
508.247

>  <OB_logP> (1etrB1)
3.6511

>  <OB_PSA> (1etrB1)
186.09

>  <OB_MR> (1etrB1)
140.497

>  <OB_ATOMIC_CHARGES> (1etrB1)
0.0001269799 0.0021669424 0.1354054781 -0.2438166896 0.1354054781 -0.2438166896 -0.2732950896 -0.1515432243 -0.1515432243 0.0489250915 0.2204733823 0.0323789499 0.0215849898 0.093919586 0.1125162228 0.0315205366 0.0294529102 -0.0865359607 -0.2365670097 -0.0699112557 0.0011329922 -0.002915501 0.0212571598 0.0039175812 0.0260180851 0.1737655255 0.1790100754 -0.2701432273 0.5345695004 0.3824577497 0.2437376278 -0.0059721976 0.0798977513 0.1379606479 0.0784588251

>  <MCT_HBD> (1etrB1)
6

>  <MCT_HBA> (1etrB1)
11

>  <ENSEMBLE_TOTAL> (1etrB1)
50

>  <ENSEMBLE_COORDS> (1etrB1)
2.8175 3.9701 0.6046 -1.6176 3.5924 3.0624 -6.1411 -2.8705 -1.9580 0.9413 1.7177 -3.7406 -4.4299 -2.8773 -3.5712 3.1039 2.3421 -4.0051 1.5288 -1.4296 -2.5330 -1.1292 -2.9418 1.7860 1.1270 -4.0096 1.7969 -2.4302 -0.6913 -1.1554 -3.3773 -0.5082 -2.3160 -1.3013 -1.6085 -1.5605 0.9268 2.4809 0.1025 0.3166 1.4716 -0.8454 -1.6370 1.3187 2.1019 3.1331 2.1748 -1.0517 0.3839 2.1774 3.3501 -4.6522 -1.1140 -1.9869 -1.0420 -0.0093 2.1431 0.4530 -2.5803 -0.1976 2.9786 -0.5095 3.2537 2.3656 0.6605 3.4928 2.2435 -1.5861 2.6254 2.1413 3.1682 -0.4801 -1.1322 2.1754 3.2479 -0.0714 -1.3106 -0.7353 2.4832 1.1677 -1.9822 1.3294 0.5600 -1.3460 -5.0308 -2.3146 -2.5611 2.2292 1.8076 -3.3343 1.0021 -0.7585 -1.6473 0.9773 0.8281 3.1165 0.2766 -0.1769 2.5409 0.9416 -1.4586 2.2920 0.2919 -2.8578 1.4908
1.4400 4.2499 -1.4520 -1.7956 2.2397 6.6946 -5.2455 0.2451 -2.8047 0.9262 0.1247 -4.5460 -3.3265 0.7074 -4.0846 2.9966 0.9513 -4.9624 2.3811 -2.0007 -1.9237 -1.2636 -2.1698 1.7229 0.7192 -3.2718 2.7714 -1.9573 -2.5164 -1.7662 -2.2673 -1.8045 -3.0607 -0.4892 -2.8640 -1.7002 0.2215 2.1273 -1.1782 0.0073 0.7258 -1.7081 -1.7586 0.2513 5.2237 2.4789 2.1584 -2.2440 -0.0670 2.1051 4.9477 -3.6615 -1.4089 -3.0523 -0.9574 -0.5571 4.3135 0.8185 -2.6097 0.3300 2.2625 1.1181 2.1946 1.6557 1.8359 3.1541 1.7668 -0.2023 1.8654 1.1691 2.9004 -2.0694 -0.9057 1.2961 5.9222 0.2457 -1.8792 -0.8187 2.2916 0.7128 -2.6647 1.2812 0.0437 -1.8683 -4.0234 -0.1059 -3.3427 2.1273 0.6187 -4.1660 1.4137 -1.3139 -1.5969 0.5410 1.2612 3.8793 0.0870 0.0174 3.6018 0.7065 -0.7322 2.5075 0.1810 -2.2539 1.8813
3.4198 3.7343 -1.2419 2.0675 3.8096 4.2500 -4.5133 -1.2493 -5.0426 -0.7128 1.0969 -3.6305 -2.7847 -2.7349 -5.6279 1.4252 0.7072 -4.2803 -1.6935 1.0329 0.5968 0.1501 -3.4914 1.0992 2.4151 -2.4596 1.3551 -2.3720 -2.3443 -1.4939 -2.5582 -3.1814 -2.7349 -1.1723 -1.4462 -1.6716 1.0287 3.5161 -0.6578 -0.2813 2.8271 -0.9827 2.1745 1.9445 2.6302 2.2612 1.5919 -1.6542 1.0050 1.6641 4.8439 -3.7311 -2.7182 -3.4487 1.5747 0.6886 2.1997 0.6714 -1.2986 -0.0803 -0.5668 -1.7281 4.8914 -0.1522 -0.5111 5.2784 -0.2227 -2.2143 3.5720 2.1094 3.0997 -1.6331 1.3313 2.6117 3.7022 -0.7231 -0.9145 -0.3377 0.9417 0.8884 -1.9172 -0.1062 1.3878 -1.0420 -3.6140 -2.2533 -4.7458 0.6057 0.9030 -3.3917 -0.8873 0.5859 -0.2244 0.5886 0.3193 4.3512 0.8810 -0.1073 3.1006 0.4689 -1.4540 2.6980 0.9716 -2.3027 1.2705
0.3989 4.8829 -0.1304 2.1911 3.8078 4.0527 -4.8791 -4.1167 -5.1591 1.7770 1.1721 -3.7278 -5.7382 -2.2291 -4.0476 3.2498 2.8002 -3.1590 2.1413 -0.9901 -0.5447 -2.3449 -1.0526 2.5233 -1.3717 -3.0955 1.4469 -1.9028 -2.6264 -2.0509 -3.1928 -2.1246 -2.6523 -0.8883 -1.5085 -2.0556 -0.6010 2.6990 -0.7192 -0.4256 1.4146 -1.5038 0.5006 2.4280 2.8925 1.8711 2.9608 -0.6287 2.5700 1.3780 3.8729 -3.4464 -2.8413 -3.8854 -0.0511 1.0902 2.7243 -1.1102 -0.8130 0.2896 2.3000 -2.3250 3.4192 2.7877 -1.1112 3.7236 0.9823 -2.4399 2.8301 0.5589 3.6398 -0.9668 1.5130 2.4599 4.0236 -0.1946 -1.3734 -0.7229 2.0388 1.6625 -1.3986 0.8722 0.8135 -1.2323 -4.7430 -3.0212 -4.3305 2.4227 1.9573 -2.8344 1.0432 -0.5031 -0.8290 1.9777 0.0658 3.4840 0.7406 -0.0285 2.9438 0.2266 -1.3503 2.5830 -1.2739 -1.6817 1.7692
4.7195 1.8290 -2.5328 -0.5580 -0.0687 8.2987 -4.8657 -2.0412 -5.7052 0.1288 0.5847 -4.6416 -2.5176 -2.0149 -5.5522 1.3253 -1.3439 -4.6697 -1.2730 1.6678 -0.7920 -0.5235 -2.0068 1.9985 1.9703 -1.9135 2.0242 -2.4878 -1.5946 -1.7501 -2.8745 -0.7709 -2.9560 -0.9858 -1.6030 -1.5877 2.4423 2.6230 -2.0191 0.9657 2.4207 -2.2794 -0.2236 -1.2205 6.1500 2.8473 0.2214 -2.5611 -0.2032 1.3014 6.2684 -3.8990 -1.4804 -3.6928 0.3107 -1.1164 4.8033 0.7128 -0.9577 0.0579 0.5642 2.5764 2.8243 0.2402 2.5484 4.1292 0.7604 1.3325 2.1013 3.2558 1.6521 -2.8472 0.1527 -0.0013 6.9700 -0.5683 -0.5820 -0.5589 1.3511 0.0042 -2.6728 0.5891 1.0477 -2.0112 -3.6897 -1.8379 -5.0117 0.9496 -0.3352 -4.0856 -0.4614 0.8076 -1.1426 0.1396 1.2754 4.8157 0.3646 0.1125 4.1641 0.6403 0.1474 2.7301 0.7008 -1.2634 1.7342
2.8635 3.7291 -0.6457 3.3455 3.4864 3.8566 -3.4631 -2.5815 -6.0951 -0.3285 1.5006 -3.9166 -3.2120 -0.7621 -4.6255 1.5569 0.2489 -4.0812 -2.1239 0.7888 0.3586 -0.5196 -3.3038 1.4547 1.9225 -2.7632 1.5601 -2.0162 -2.9199 -1.7291 -3.3131 -2.6637 -2.4586 -1.1226 -1.7042 -1.8084 0.4205 3.3488 -0.5292 -0.7563 2.6381 -1.1689 2.8378 1.5540 2.4072 1.9300 1.5538 -1.3549 1.7493 1.7829 4.6693 -3.1461 -3.0127 -3.8556 1.8885 0.4931 2.1036 0.4078 -1.3621 0.0658 -0.6835 -1.0363 5.0536 0.0553 0.0536 5.3197 -0.5394 -1.7056 3.7771 1.6885 3.0482 -1.2999 2.2725 2.5102 3.4411 -0.9464 -1.1020 -0.4406 0.7259 0.7999 -1.8868 -0.5155 1.2072 -1.2500 -3.2800 -2.0462 -4.8362 0.7104 0.8082 -3.3955 -1.2378 0.3810 -0.3980 0.9494 0.5764 4.3063 1.0522 -0.0082 3.0902 0.2858 -1.2272 2.8232 0.5420 -2.3106 1.4886
2.1691 4.1656 -2.6125 -2.6312 0.7620 7.1514 -4.5500 1.0973 -2.8781 1.6162 -0.6291 -4.9257 -2.9975 1.5877 -1.1802 3.4938 0.5126 -5.4832 2.6252 -2.1742 -2.1165 -0.6997 -2.8072 1.7557 1.5685 -2.5898 2.7697 -1.4838 -1.8473 -2.1447 -2.4040 -1.2504 -1.1058 -0.3354 -2.5835 -1.4916 0.7904 2.1960 -2.0600 0.5198 0.7354 -2.3507 -1.6981 -0.9262 5.6115 3.1092 1.9087 -2.9427 -1.6941 1.5188 4.9925 -3.5444 -0.6529 -1.7703 -0.7948 -1.1674 4.4961 1.2870 -2.2684 0.2954 0.1060 1.8571 1.7237 -0.6062 2.1588 2.8227 0.5101 0.4862 1.4825 1.8454 2.7439 -2.9967 -1.5672 0.4998 6.1143 0.6447 -1.6177 -0.8615 2.8407 0.4296 -3.1548 1.7547 -0.0294 -2.3085 -3.6478 0.7205 -1.9032 2.6957 0.1341 -4.6346 1.7711 -1.3357 -1.8314 -0.9244 1.1167 3.7786 -0.5277 -0.1608 3.5790 0.1893 -0.4946 2.3481 0.5695 -2.0962 1.8314
2.0442 3.6763 -4.9121 -3.3704 2.0920 3.5578 -5.9586 -1.6474 0.2314 4.3901 0.3880 -1.3950 -5.7565 -2.1124 -2.0649 5.0436 2.5494 -1.1699 0.6827 1.4674 0.2969 -0.5319 -3.3250 0.7169 1.9534 -3.5014 0.8401 -2.0277 -1.4700 -1.8133 -3.2720 -0.6495 -2.0478 -0.7967 -0.6266 -2.0284 1.3686 1.4779 -4.0049 1.7010 0.3965 -2.9972 -2.4831 0.3608 2.0423 2.4861 3.1499 -2.5382 -1.1122 1.1904 3.9895 -4.1455 -0.7985 -0.9016 -1.5254 -0.7235 1.8859 0.9233 -1.7126 -0.6373 2.1007 -0.7248 4.0041 1.1473 0.1652 4.3241 1.8973 -1.6205 2.8842 2.4034 2.5809 -3.9402 -2.5036 0.8594 3.4748 0.0356 -0.5484 -0.7749 2.7004 2.0748 -1.4887 1.8039 0.9496 -1.6559 -5.3040 -1.5500 -0.9803 4.1595 1.7206 -1.3464 0.8536 0.7208 -0.6707 -0.0961 0.1761 3.5814 -0.3220 -0.7010 2.5758 0.7485 -1.6188 2.1759 0.7626 -2.6656 0.7868
3.7056 4.2432 -1.6458 -3.1895 0.4724 6.6657 -5.1782 -0.3311 0.6476 2.6994 0.5327 -5.0876 -4.5831 -2.4468 -0.1865 4.9541 0.4443 -4.8519 2.4706 -1.9441 -2.4461 -1.5824 -2.1375 0.6852 0.4131 -2.9716 1.9190 -1.7144 -0.3808 -2.2695 -3.0352 -1.1083 -2.2123 -0.5849 -1.3809 -2.3569 1.8045 2.6886 -1.8693 1.2801 1.4451 -2.5544 -2.5734 -1.0102 4.7936 4.1424 1.9115 -2.3110 -1.7142 1.3592 4.8891 -3.9034 -0.4355 -1.2672 -1.6085 -1.2727 3.7375 0.6901 -2.0547 -0.3964 0.6129 1.8321 1.9868 -0.1363 2.0873 3.0735 0.6102 0.5038 1.4041 3.1650 3.0648 -2.4162 -2.0978 0.1212 5.6858 0.5173 -0.9888 -1.3991 3.5937 0.6121 -2.8655 2.2387 0.3623 -2.4197 -4.5486 -1.1469 -0.2709 3.8371 0.5226 -4.3552 1.8278 -0.9364 -2.1553 -0.9101 1.0207 3.6777 -0.8955 -0.2299 3.1637 -0.1212 -0.4866 1.9497 -0.1862 -1.9612 1.0578
4.3255 2.2971 -1.7153 3.3711 2.5858 4.8009 -1.5483 -4.7289 -4.1872 -0.6127 2.3719 -3.5796 -1.7098 -2.5712 -5.1074 0.6780 0.8284 -4.6274 -1.6287 1.9847 0.3064 -1.2910 -2.9293 1.0163 1.1654 -2.6515 1.4063 -3.0708 -1.4096 -1.6275 -3.5359 -1.9065 -2.9746 -1.7909 -0.6280 -1.7945 2.1921 3.0182 -0.7112 0.6839 3.0210 -0.8351 2.6576 1.1048 2.9633 2.2823 0.9812 -2.1494 1.2262 1.4019 5.0328 -2.9892 -3.2288 -3.2061 1.5480 0.3815 2.3590 -0.0464 -1.0175 -0.1282 -1.7332 -0.8554 4.6762 -0.8528 0.0204 5.1879 -1.4994 -1.4200 3.3639 2.8338 2.3740 -1.9211 2.1767 2.0563 4.0438 -1.2454 -0.2285 -0.4500 0.7665 0.9674 -2.2178 0.1860 1.6839 -1.0934 -2.0644 -3.4489 -4.2119 0.2960 1.3701 -3.5972 -0.9300 1.2493 -0.3956 0.2788 0.4471 4.3893 0.4732 -0.0244 3.1363 -0.4427 -1.0422 2.6155 -0.1495 -2.0543 1.2327
4.0346 3.6051 -3.4234 -2.9419 1.8045 6.3090 -3.4330 -1.7041 -4.8062 -0.0963 0.2872 -4.6532 -5.2736 -1.0638 -3.4891 1.7300 0.4435 -5.9900 1.2979 -1.7433 -1.9147 2.7041 -1.1614 1.2185 2.4773 0.9382 2.5505 -2.1800 -1.0255 -0.3942 -3.3725 -0.8402 -1.2996 -1.1999 0.1076 -0.5853 2.1221 2.8104 -2.0615 0.9219 1.8830 -2.0157 -1.3490 1.8096 4.4247 3.2281 1.2848 -3.6814 -1.5883 -0.2280 5.8941 -3.1710 -1.5993 -2.5185 -0.5864 0.9964 3.4892 0.8863 0.5253 0.6129 0.6696 -2.8795 4.5135 -0.1960 -2.2327 5.3123 1.2003 -2.2136 3.3406 2.8174 2.7159 -3.4033 -2.2956 0.9516 5.2446 0.1998 -0.3818 -0.3185 2.0486 0.3347 -3.5941 1.3065 0.5218 -2.3601 -4.0249 -1.4220 -3.5918 1.2362 0.3803 -4.8705 0.9800 -0.5919 -1.6013 -0.6349 -0.8969 4.9588 -0.1786 -0.2811 3.8428 0.8154 -0.9637 3.0096 1.8457 -0.1715 1.8515
0.9786 3.6065 -4.1572 -2.3590 3.1393 2.3342 -5.7360 -1.8775 -0.4405 2.9990 1.9199 0.6653 -5.6047 -0.9219 -2.5856 1.2942 3.4078 0.5074 2.6750 -1.5622 -2.3580 -0.9782 -3.2377 0.9329 1.2295 -4.1736 1.6235 -1.4439 -0.4858 -1.7449 -2.7291 -1.0389 -2.3069 -0.3313 -1.4873 -1.9336 2.6148 1.8508 -3.5483 3.2883 1.1392 -2.3905 -1.8816 0.9453 1.3163 0.6577 2.3055 -2.0733 -0.4356 1.8344 3.1771 -3.6757 -1.2124 -1.2242 -1.2431 -0.3496 1.4962 1.1384 -2.5664 -0.3403 2.1121 -0.7843 3.9829 1.4250 0.3694 3.9935 1.7216 -1.8412 3.0737 1.6793 2.9159 -3.0150 -1.8398 1.7483 2.6018 0.7683 -1.2561 -0.9192 1.3087 1.4872 -0.9668 2.2940 0.5596 -1.5033 -5.0284 -1.3237 -1.4883 1.8532 2.3907 0.1175 2.0002 -0.7930 -1.6720 0.2783 0.5247 3.1223 -0.1261 -0.4767 2.3072 0.6515 -1.7159 2.2608 0.4449 -3.0403 1.1554
4.2232 3.9465 -3.2850 -3.7793 1.1596 5.6314 -4.8987 -1.7409 -4.0812 0.5648 0.8414 -4.8731 -5.8712 -0.8641 -2.1276 2.3498 -0.1526 -5.8644 2.0936 -1.5465 -1.7649 2.9363 -0.7806 1.4323 2.1886 1.2204 2.7246 -1.7627 -1.2269 -0.6871 -3.1855 -0.8531 -1.0207 -0.8599 -0.0337 -0.8850 2.3233 2.9821 -2.0316 1.1979 1.9673 -2.0535 -1.9409 1.4554 4.0131 3.6018 1.5928 -3.6491 -2.0889 -0.6376 5.4145 -3.6189 -1.6243 -2.1687 -0.9363 0.7905 3.1969 0.9853 0.6196 0.5696 0.7169 -2.8900 4.3674 -0.3472 -2.4036 5.0284 1.3147 -2.1147 3.2985 3.0691 2.9771 -3.3489 -2.8599 0.4436 4.6725 0.5359 -0.3651 -0.4262 2.5346 0.5233 -3.5614 1.6948 0.6411 -2.3873 -4.8460 -1.3691 -2.7532 1.8264 0.3542 -4.8801 1.5133 -0.4724 -1.5805 -0.9206 -1.1339 4.6269 -0.4007 -0.4242 3.5980 0.7971 -0.9275 2.9208 1.8494 0.0460 1.9344
2.9608 0.7113 -6.1905 -1.3969 0.0856 8.0918 -6.2916 -1.6058 -3.6005 3.8866 1.1031 -1.2744 -4.4842 -0.6042 -4.7223 3.8171 3.2779 -1.9187 -0.4254 1.6347 -1.3347 -0.9167 -2.0070 1.6906 1.5045 -2.2802 2.2321 -2.1311 -1.9388 -1.7276 -2.7097 -2.1921 -3.0989 -0.6392 -1.7261 -1.8166 2.0682 -0.5882 -4.2890 1.9597 -0.6691 -2.7807 -0.9963 -1.1837 6.0126 2.2418 1.8840 -4.1350 -0.7176 1.3218 6.0675 -4.1550 -2.2083 -2.9922 -0.3256 -1.1899 4.7204 0.8489 -1.1842 0.0560 0.5023 2.3987 2.6964 0.0424 2.4419 3.9582 0.6647 1.1190 2.0338 2.8787 0.6254 -4.6882 -0.5658 0.0178 6.8344 -0.2090 -0.6711 -0.8269 2.0468 1.8055 -2.6323 1.4210 0.5637 -2.2242 -4.9402 -1.4296 -3.8236 3.3234 2.1575 -1.9084 0.2468 0.6112 -1.4883 -0.2422 1.2056 4.6586 -0.0725 0.0043 4.0603 0.3734 -0.0332 2.6681 0.4319 -1.4576 1.6924
2.2615 3.0387 -4.9017 2.0634 3.3415 4.3174 -5.9121 -3.3291 -2.5003 3.4650 1.7154 -0.0303 -5.4390 -1.3707 -3.7156 3.0950 3.9477 -0.1886 -0.8767 1.3136 -0.3424 -0.6514 -3.5076 0.8091 1.5797 -3.0268 1.8306 -1.5671 -2.4664 -2.2908 -2.6339 -2.0256 -3.2611 -0.4515 -1.4503 -2.2553 1.9255 0.9337 -3.6473 1.9828 0.2746 -2.2837 2.1424 1.3496 2.8617 1.4978 3.1209 -2.5507 0.3176 1.6096 4.5716 -3.7451 -2.9525 -3.1882 1.3720 0.2738 2.2557 0.7998 -1.6460 -0.1577 -2.0168 -1.2903 4.1851 -1.4301 -0.1835 4.6699 -1.4574 -1.9478 3.0215 2.3631 2.3797 -3.5501 1.2284 2.3213 3.5839 -0.2713 -0.9203 -0.8559 1.5041 2.4389 -1.1941 1.2113 1.0212 -1.2999 -5.0439 -2.4785 -3.1547 2.7552 2.7957 -0.4282 -0.0167 0.5724 -0.8262 -0.2757 0.3689 3.9909 0.2488 -0.2285 2.8959 -0.3699 -1.4560 2.3928 0.3451 -2.5375 1.2368
2.7826 3.7542 0.6316 5.1920 0.1550 2.3857 -5.6466 -2.8833 -5.1188 0.3244 1.8332 -3.7124 -3.5064 -3.8388 -5.3211 2.5800 1.8124 -3.9571 0.7447 -1.4711 -1.1660 -2.9200 -0.8211 2.4079 -1.2472 -2.5004 3.2038 -2.2996 -2.1402 -1.9539 -2.6215 -1.8541 -3.4010 -2.4314 -0.8697 -1.1447 0.5923 2.6416 0.3557 -0.3241 1.9407 -0.6243 3.0720 -1.0913 2.1377 2.5578 1.8998 -0.9819 3.1335 1.0740 3.4155 -4.0009 -2.2191 -3.6530 1.6177 -1.0120 2.1469 -1.1716 -1.7044 0.7921 -0.3868 1.9927 4.2987 0.9516 2.0322 4.1952 -1.1178 0.9081 3.6777 1.8559 3.0838 -0.3500 3.6954 0.2886 2.2417 -1.2856 -0.6156 -0.1928 1.6375 1.0793 -1.8633 0.3573 0.8156 -1.2440 -4.3269 -3.0130 -4.7364 1.5846 1.6160 -3.2713 0.0419 -0.4951 -0.9069 1.6437 0.9880 3.4664 0.9663 -0.0153 2.8593 -0.4937 -0.0550 2.9675 -1.5512 -1.3159 2.4158
2.2686 4.0617 0.8094 0.8870 0.9870 6.7148 -4.2491 -4.9387 -0.6361 3.6336 0.5776 -3.0855 -5.1048 -2.9959 -1.6501 4.1266 -0.1645 -0.9991 -0.8761 1.8365 -3.3464 -1.1840 1.9003 0.3162 -2.8610 0.1546 0.9095 -1.1169 -2.5001 -2.7138 -2.5748 -2.7537 -3.0180 -0.7398 -1.1267 -3.2188 1.5446 3.7837 -1.5379 1.6337 2.9018 -2.7677 -0.2481 1.5774 4.5945 2.0860 1.7869 -0.1311 1.3985 -0.3238 4.6752 -3.0102 -3.9270 -2.2906 -0.6913 1.0881 3.2960 -1.6888 0.0457 -1.3109 1.2599 -2.1021 1.3811 1.6492 -1.7334 2.6131 0.1936 -1.3787 0.7181 2.4295 3.2309 -0.4393 0.3212 0.4421 5.4268 -0.4468 -0.1676 -2.0838 2.0012 0.9150 -1.3713 1.2434 1.5427 -2.4379 -4.1664 -3.8924 -1.5327 3.3608 0.3976 -1.7720 -0.0794 1.1743 -2.6817 0.9776 -0.6335 3.2762 -0.0124 0.0558 2.6630 -0.3967 -0.3169 1.3009 -1.5685 0.4953 0.3298
4.6239 4.1394 -2.7733 -4.3648 0.8394 4.8883 -5.9423 -2.6658 -1.2275 1.3050 0.2838 -4.9221 -5.8832 -0.3518 -1.6460 3.3417 0.7397 -5.8109 2.2836 -1.4649 -1.8398 2.8687 -0.7771 1.4518 1.9740 1.1510 2.7619 -1.5833 -1.0742 -1.2552 -2.9748 -0.6621 -1.6673 -0.6816 0.1345 -1.1981 2.5319 3.1212 -1.9300 1.4678 2.0703 -2.1772 -2.3395 1.2770 3.5448 4.1554 1.7606 -3.2419 -2.6289 -0.9123 4.7619 -3.9269 -1.5624 -1.0484 -1.2222 0.6834 2.8234 1.0382 0.6846 0.4466 0.3388 -3.0467 3.9662 -0.8048 -2.6102 4.5190 1.0460 -2.2054 3.0228 3.5388 3.1325 -3.0607 -3.3174 0.2100 4.0026 0.6538 -0.2533 -0.6184 3.1088 0.6739 -3.4031 2.0758 0.7663 -2.3885 -5.2748 -1.4627 -1.3405 2.6190 0.5972 -4.8324 1.7383 -0.3701 -1.6706 -1.3500 -1.3300 4.1156 -0.7143 -0.5477 3.2122 0.5691 -0.9951 2.6645 1.7302 0.0270 1.8703
1.4436 4.8929 0.5011 4.3287 2.2333 3.0133 -3.8656 -5.4153 -4.4988 0.9973 2.1336 -3.7132 -4.9319 -3.3555 -4.8843 3.2352 1.9709 -3.3663 1.2207 -0.8555 -0.4505 -2.3267 0.7037 3.1109 -2.8644 -1.5298 2.1236 -1.9158 -2.0471 -2.1928 -2.7409 -2.1133 -3.4543 -1.9975 -0.6614 -1.5952 -0.2798 3.2696 -0.2080 -0.6358 2.1709 -1.1897 1.9253 2.0375 2.5223 2.1404 2.8086 -0.6159 3.2808 0.0071 3.1680 -2.7492 -3.4783 -3.9416 0.7275 1.2231 2.6469 -1.7645 0.2562 0.6661 0.9445 -2.9098 3.3530 2.0688 -2.1751 3.3777 -0.3167 -2.2811 3.0164 1.0667 3.8745 -0.5459 3.0604 1.4968 3.3698 -1.1326 -0.5858 -0.3624 1.7502 1.6429 -1.5008 0.4090 1.1593 -1.2449 -3.9079 -4.0360 -4.4527 2.0877 1.9209 -2.9417 0.2702 -0.0988 -0.6703 1.9990 -0.7526 3.1128 0.8197 -0.1448 2.8504 -0.3918 -0.9602 2.7554 -1.9543 -0.4015 2.2419
1.5488 0.5830 -6.3026 -0.6546 0.3065 8.2830 -3.7753 0.5005 -4.6431 3.4600 1.0358 -1.5178 -2.5091 -1.3947 -5.2205 3.1818 3.1873 -2.1866 -0.9140 1.3321 -1.1225 -0.9432 -2.0625 2.0472 1.5226 -2.3443 2.3062 -2.5001 -2.2860 -1.3449 -3.1824 -2.5224 -2.6700 -1.0258 -2.0354 -1.5567 1.1719 -0.7690 -4.2715 1.4118 -0.8575 -2.7802 -0.4598 -1.0485 6.2370 1.3219 1.7166 -4.1185 -0.2379 1.4616 6.1400 -3.7061 -1.2653 -3.1667 0.0582 -1.1037 4.8807 0.6091 -1.4088 0.1546 0.5811 2.3799 2.5982 0.2783 2.4866 3.9039 0.6693 1.0685 1.9801 1.8297 0.4763 -4.8255 0.0323 0.1995 6.9450 -0.5542 -0.9547 -0.6185 1.4142 1.6063 -2.6096 0.9318 0.3390 -2.1058 -3.2825 -0.7624 -4.3840 2.7616 2.0407 -2.0950 -0.2127 0.3374 -1.3211 0.0856 1.2868 4.6939 0.2085 0.0595 4.1410 0.4781 -0.0477 2.7091 0.4012 -1.5410 1.8413
3.6771 2.5089 -4.5341 2.9055 2.6526 4.8962 -5.3784 -2.0605 -2.5682 2.3567 2.2338 0.2003 -4.5307 -3.5101 -4.2146 1.2060 4.1579 -0.1604 -1.3348 1.0208 -1.1603 -1.5496 -2.8713 0.8170 0.6369 -3.1442 2.0078 -0.9640 -2.9718 -2.6069 -1.9090 -2.4592 -3.6667 0.0852 -1.9316 -2.2965 2.7943 0.6011 -3.2418 2.1112 0.1639 -1.9631 2.5068 0.6891 3.4465 1.8044 2.8747 -2.9739 0.6401 1.6671 4.8210 -3.1248 -2.0009 -3.0254 1.5118 -0.0756 2.7071 0.4808 -1.4707 0.0789 -2.5130 -0.1338 3.9172 -1.6515 0.7001 4.5225 -2.0371 -1.0274 2.8813 3.0751 2.0877 -3.2168 1.8966 1.9569 4.0168 -0.3277 -1.1202 -1.0957 1.0216 2.3797 -1.7754 0.9001 0.9367 -1.7360 -4.3451 -2.5790 -3.3225 1.5141 3.0239 -0.5041 -0.2960 0.3738 -1.3192 -0.2632 0.7165 4.1088 0.1867 -0.0911 3.1202 -0.7492 -1.0166 2.4800 -0.3368 -2.2812 1.3602
2.0938 5.2194 0.0185 4.1607 1.7444 3.1195 -3.5724 -5.5979 -3.7764 1.5908 1.2639 -3.6216 -5.0595 -4.0451 -2.8215 3.6689 2.0658 -3.1925 1.2249 -0.8723 -0.6104 -2.7676 0.8587 2.6149 -3.1930 -1.2451 1.3231 -1.5813 -1.4843 -2.7773 -2.9153 -2.1006 -3.1139 -1.7677 -0.1846 -2.0315 0.2566 3.6555 -0.5000 -0.1587 2.4282 -1.2849 1.8011 1.8160 2.3990 2.6293 2.8998 -0.6182 2.8218 -0.3170 3.2935 -2.7589 -3.5412 -3.1316 0.4990 1.1702 2.4725 -1.7391 0.5832 0.2922 0.1665 -2.9501 3.2211 1.3528 -2.3412 3.3819 -0.9671 -2.1932 2.7336 1.6756 4.0552 -0.8430 2.7779 1.1991 3.3820 -1.0648 -0.2645 -0.7023 2.1864 1.6365 -1.3330 0.7890 1.3453 -1.0771 -3.8656 -4.3624 -3.2353 2.5711 1.6964 -2.7944 0.4158 0.0407 -0.8002 1.4711 -0.9225 3.1135 0.4057 -0.1935 2.7091 -0.8658 -0.8762 2.4612 -2.2820 -0.1865 1.7294
5.2214 1.6034 -2.3423 -3.0939 -1.8374 6.1413 -4.3630 -4.2394 -3.0000 0.2946 0.1449 -4.4099 -4.7640 -2.1761 -4.0541 2.0460 -1.2544 -4.0604 -0.5869 3.2659 -1.5831 2.1395 1.8344 1.0285 0.7311 2.6430 2.9275 -1.6558 -0.7972 -1.3458 -2.8054 -1.0091 -2.2991 -1.7280 0.6025 -0.7902 3.1449 2.8848 -2.7398 1.6967 2.8058 -3.1772 -2.2645 -0.0647 4.6322 3.0316 0.4944 -2.0283 -0.8448 -2.0816 5.1563 -3.0850 -2.4271 -2.3844 -1.3240 0.2719 3.5714 -0.4071 1.8212 0.8065 2.2994 -1.8144 3.1493 1.3816 -2.2520 4.0265 2.0590 -0.5917 2.4117 3.8000 1.5228 -2.8368 -2.2506 -1.5551 4.9218 -0.3420 1.1290 -0.4962 1.5608 0.4524 -2.4098 0.9908 1.7902 -2.4191 -4.1082 -2.8957 -3.1883 1.3620 -0.3030 -3.7062 -0.0055 2.1820 -1.5338 0.1343 -1.5303 4.1748 -0.1231 -0.4135 3.4547 0.9112 0.1028 2.5539 0.9468 1.6912 1.8486
2.0062 3.0298 -4.9429 2.2698 2.6345 5.4608 -5.2064 -1.2808 -4.4147 1.3595 2.7654 0.1636 -3.4278 -2.6367 -5.1395 -0.7530 2.9358 -0.6459 3.0047 -1.3842 -1.1583 -1.2480 -3.2217 0.9592 0.4930 -3.2760 2.7497 -1.4335 -1.3378 -1.7649 -2.2504 -2.3416 -2.5386 -0.0257 -1.8665 -1.6294 3.2264 1.7438 -3.2213 3.2471 1.3299 -1.7642 2.1744 0.5771 4.0930 0.7461 1.9357 -3.1170 0.0774 1.8463 4.6781 -3.5013 -1.7324 -2.9365 1.3927 -0.1941 3.1341 1.0271 -2.1387 0.5403 -2.8006 0.1104 3.0502 -2.0881 0.9547 3.8133 -2.1209 -0.9413 2.3234 2.0360 2.6400 -3.4868 1.5519 1.9423 4.3280 0.6922 -1.1526 -0.5064 0.7683 1.3890 -1.7024 2.0000 0.6880 -1.3919 -4.0051 -1.9293 -4.2098 0.3641 2.4363 -0.6926 2.0187 -0.6560 -1.0438 -0.6440 0.8512 3.8361 0.0078 -0.0994 3.1281 -0.7787 -1.0708 2.3655 -0.1799 -2.5503 1.6838
5.0650 3.8257 -2.6797 -5.0200 -0.5659 4.1629 -4.7080 -2.7069 0.7464 1.6661 0.8591 -5.1040 -5.6119 -0.7945 -0.2815 3.6576 -0.1545 -5.5048 2.2285 -1.1320 -1.2622 2.6685 0.3098 1.5063 1.1167 1.8185 2.7450 -1.6238 -0.5409 -1.9981 -3.0398 -0.3763 -1.5084 -0.8029 0.6453 -1.5625 2.7780 3.1498 -2.0076 1.6040 2.2544 -2.3465 -3.0969 0.5826 3.1176 4.3197 1.4961 -3.0372 -2.8216 -1.6964 4.1607 -3.4156 -1.5669 -0.7764 -1.7790 0.4253 2.5173 0.6059 1.2229 0.3309 0.6988 -2.8090 3.5511 -0.5726 -2.7851 3.9828 1.2144 -1.6923 2.7863 3.8874 2.9471 -3.0168 -3.7406 -0.7655 3.3874 0.3479 0.2007 -0.6967 3.1526 0.5544 -3.2592 2.0096 0.8585 -2.4216 -4.6267 -1.6296 -0.1128 2.8709 0.3729 -4.7283 1.6185 -0.0808 -1.4766 -1.4246 -1.6644 3.6364 -0.9674 -0.6406 2.8778 0.4366 -0.6394 2.4604 1.3049 0.7180 1.8115
1.8806 2.8511 -4.9992 4.5081 1.4480 4.2420 -4.1769 -3.0647 -5.9982 2.9928 1.3817 0.0125 -5.2763 -3.8009 -4.0536 3.3877 3.5261 -0.6054 -1.2347 1.9890 -0.2074 -2.2533 -2.1726 1.4204 0.0285 -3.0908 1.8915 -2.9507 -1.3775 -1.9235 -3.0783 -2.7590 -2.5195 -1.5000 -0.9596 -1.9004 1.1218 0.9133 -3.6579 1.1499 0.2735 -2.2841 3.1551 -0.0533 2.8186 1.3187 3.1472 -2.6039 2.1367 1.0710 4.8259 -3.1991 -2.6422 -3.9596 1.8106 -0.3916 2.3715 -0.2218 -1.2279 0.1608 -1.4938 0.1683 4.9055 -0.2975 0.6673 5.2576 -1.6219 -0.5926 3.6791 1.9067 2.2071 -3.6377 3.1309 1.1949 3.6823 -1.1482 -0.3516 -0.5697 1.2878 2.5045 -1.2269 0.6656 1.1915 -1.2628 -4.2696 -3.2063 -4.6284 2.6602 2.5416 -0.5958 -0.5877 1.0494 -0.6791 0.8388 0.4877 4.3766 0.7259 -0.1950 3.2134 -0.5692 -0.7749 2.8551 -0.8274 -1.9527 1.6004
5.0279 3.9744 -2.2029 -5.0075 0.2364 3.9160 -5.4988 -0.4900 0.2499 1.7151 0.8074 -5.1766 -5.2124 -2.7340 0.8890 3.8963 1.1315 -5.7102 2.2578 -1.3452 -1.9309 2.7518 -0.5284 1.4412 1.5413 1.2446 2.7155 -1.6341 -0.8007 -1.5129 -2.9113 -0.4482 -0.7942 -0.6807 0.3672 -1.4570 2.7390 3.1314 -1.7883 1.6332 2.2242 -2.2920 -2.8624 0.9498 2.9045 4.4151 1.6953 -2.9370 -3.1013 -1.3334 3.9512 -3.6143 -1.6726 -0.4716 -1.6033 0.5072 2.3196 0.9624 0.8522 0.2775 0.1377 -3.1381 3.4832 -1.1088 -2.8411 3.8840 0.8845 -2.1763 2.6998 3.9150 3.1129 -2.7421 -3.7834 -0.2275 3.1663 0.6090 -0.0651 -0.8126 3.3032 0.7663 -3.3919 2.1359 0.8807 -2.5354 -4.7832 -1.6710 0.2662 3.0269 0.9408 -4.8690 1.7452 -0.2294 -1.8008 -1.7125 -1.5905 3.4718 -1.0371 -0.6977 2.7107 0.3475 -0.9937 2.3334 1.5061 0.1602 1.7456
-0.1667 2.6892 -5.5187 -1.5825 2.5747 6.2853 -3.3316 -2.1708 -3.5957 3.3833 -0.0998 -3.2154 -3.3324 0.1138 -4.1522 3.6713 1.8877 -2.1583 -0.0616 -2.1430 -1.6052 2.3632 -2.0749 0.8425 3.0453 -0.0900 2.1971 -2.3053 0.6076 -0.0813 -3.1155 0.7058 -1.3503 -0.8729 0.9868 -0.3662 -0.1368 0.3345 -4.8001 0.5297 -0.7123 -3.9347 -0.1398 2.0853 4.3396 0.8423 2.1224 -3.3444 -1.0735 0.2189 5.7551 -3.3091 -0.6250 -1.8900 0.2558 1.0871 3.3553 1.2955 0.1857 0.3829 -0.0111 -3.0186 4.2123 -0.5444 -2.1282 5.0647 0.7096 -2.5506 3.0466 0.6192 1.6453 -4.7651 -1.3167 1.5982 5.1658 0.0174 -0.2200 -0.2162 1.4309 1.0503 -2.4510 0.7293 -0.2109 -2.5891 -3.3162 -0.8328 -3.2571 2.9336 1.0044 -2.5767 0.2518 -0.9523 -1.5224 -0.4511 -0.7127 4.7701 0.1749 -0.2648 3.6569 0.8206 -1.2350 2.7698 1.9932 -0.8559 1.5459
2.5444 2.9009 -4.9088 4.3086 0.8815 4.4188 -4.9372 -4.7443 -3.3113 3.0976 1.1433 0.1044 -2.7806 -4.2676 -4.1183 3.8043 3.2357 -0.4044 -0.9889 2.2921 -0.3792 -2.6398 -1.7426 1.0151 -0.5314 -2.9586 1.6023 -3.0036 -0.7633 -2.3258 -3.3001 -1.4841 -3.6177 -1.5176 -0.5290 -2.2102 1.4624 1.0295 -3.7022 1.3029 0.3492 -2.3570 2.8790 -0.3843 2.8508 1.8513 3.1880 -2.5479 1.8721 0.7946 4.8324 -4.2436 -2.5510 -3.3517 1.5380 -0.5297 2.3017 -0.4263 -1.0438 -0.0844 -1.8418 0.3665 4.6311 -0.6204 0.6976 5.0818 -1.9767 -0.3296 3.3675 2.3946 2.2153 -3.5760 2.9524 0.8272 3.7629 -1.1761 -0.0258 -0.8339 1.6422 2.5111 -1.2040 0.8655 1.2898 -1.3349 -3.9186 -3.8675 -3.6253 2.9592 2.3531 -0.4814 -0.4343 1.2919 -0.8439 0.5449 0.4026 4.2721 0.4297 -0.2212 3.0766 -0.8993 -0.6154 2.6071 -1.2129 -1.7122 1.2935
0.8279 5.3527 -1.0936 3.9479 2.0270 3.3148 0.2560 -4.0003 -2.6185 0.3440 1.4880 -3.9523 0.3327 -1.9582 -3.7847 2.5845 1.2807 -3.6492 0.5964 -0.9047 -0.6689 -2.6717 0.1416 3.3865 -3.0997 -1.8780 1.9685 -3.1705 -1.6766 -1.9429 -2.5526 -1.8547 -3.3083 -2.7813 -0.3293 -1.3856 -0.8571 3.5427 -1.0032 -1.2267 2.1451 -1.4602 1.5521 1.7912 2.7778 1.5485 3.0043 -1.2889 2.9916 -0.2435 3.1722 -1.7253 -3.0442 -3.3018 0.3847 0.9241 2.8359 -2.0774 0.2191 0.8956 0.7793 -3.2560 2.9758 1.8741 -2.4845 3.0792 -0.5152 -2.6401 2.7652 0.4504 3.9913 -1.6191 2.7102 1.1992 3.5605 -1.7118 -0.4926 -0.3391 1.1821 1.5983 -1.7146 -0.1352 1.2059 -1.2478 -0.3475 -2.9351 -3.2555 1.4583 1.4196 -3.1883 -0.3222 -0.0879 -0.7857 1.7410 -1.0427 3.0212 0.5337 -0.4549 2.8567 -0.6476 -1.3004 2.6833 -2.2538 -0.7471 2.3148
2.6999 -1.0892 -6.2927 -2.1780 -0.7425 7.9070 -5.8083 -2.4296 -2.8727 4.4047 1.6280 -2.2465 -5.3424 -0.1251 -2.8454 4.0868 3.2083 -3.8430 0.8583 2.2437 -1.2727 -0.0725 -2.0963 1.6397 2.0874 -1.2334 2.5395 -1.7395 -1.2037 -1.1973 -2.5742 -0.7828 -2.3818 -0.2720 -1.0850 -1.5277 2.4067 -1.3597 -3.8593 2.5440 -0.7064 -2.4997 -0.9648 -1.5713 5.9299 2.3699 0.9212 -4.9052 -1.9940 0.7307 5.9370 -3.6283 -1.7575 -2.5756 -0.2456 -1.1996 4.7215 1.3537 -0.5621 0.2380 -1.1255 2.3652 2.6821 -1.6829 2.1366 3.8835 -0.2612 1.3645 2.0855 2.9723 -0.4690 -4.9452 -1.2910 -0.3409 6.7556 0.3590 -0.0020 -0.6892 2.3764 1.5360 -3.5202 1.9120 0.6034 -2.5155 -4.9397 -1.3616 -2.7660 3.6955 2.2190 -3.2361 1.0774 1.0522 -1.5037 -1.3762 0.9102 4.5914 -0.5578 -0.0233 4.0551 -0.0028 0.2056 2.7212 0.8525 -0.9835 1.8085
0.7663 2.4370 -5.6474 -4.2661 -0.2879 3.4762 -4.6057 0.1533 -1.6140 2.8349 -1.6703 -3.4290 -4.4796 2.5015 -1.5414 4.1858 0.0271 -2.7624 -0.7386 -1.9168 -1.3448 1.7669 -2.8866 1.6550 3.7029 -1.3390 1.9369 -0.9115 1.5128 0.5220 -1.7692 2.1534 -0.5417 0.4318 1.1184 -0.0452 -0.2703 0.4253 -4.6701 -0.0658 -0.7977 -3.8020 -2.2910 -1.1673 2.2857 1.6569 1.5309 -3.5335 -2.0286 0.3699 4.2716 -2.5683 1.1310 -1.1862 -0.8619 -1.4350 2.3634 1.9403 -0.7909 0.2079 1.6319 0.8428 4.8609 0.2989 0.9606 4.9697 2.1923 0.0012 3.8248 1.0298 1.1748 -4.8657 -2.8380 -0.7490 3.6378 0.5587 -0.3842 -0.0794 1.7992 0.3289 -2.6219 0.5704 -0.4399 -2.5480 -3.9124 1.3335 -1.4351 3.0638 -0.4324 -2.9350 0.0975 -1.0103 -1.3775 -0.5589 0.1926 4.0910 -0.0451 -0.6537 3.1687 1.4081 -0.7090 2.9869 2.2747 -1.5251 1.7219
3.0611 5.3438 -1.6466 3.5343 -0.1950 4.6994 -4.4604 -4.9111 -3.1554 2.3962 0.4394 -3.9594 -4.0602 -4.4268 -0.8889 4.4418 1.3872 -3.7081 1.6867 -0.5545 -0.4608 -2.4440 2.0750 2.0648 -3.4359 0.3799 0.5140 -1.3896 -1.4374 -2.4239 -2.6493 -2.0580 -1.8676 -1.2994 0.0234 -2.0480 1.0957 3.8368 -1.7420 0.5854 2.4716 -2.1631 1.8455 0.8525 3.2462 3.3883 2.8984 -1.5071 1.4800 -1.4610 4.1945 -2.9480 -3.2526 -2.6321 0.4570 0.8459 2.8129 -1.0916 1.2919 0.0438 -1.9062 -2.6127 3.0914 -0.6762 -2.6081 3.6316 -2.3762 -1.4514 2.3637 2.5529 4.0047 -2.1169 2.0540 -0.0730 4.4310 -0.5447 0.1830 -0.7539 2.8623 1.5242 -1.8799 1.4337 1.4143 -1.6364 -3.8432 -4.1910 -2.1519 3.3253 1.1405 -3.2688 0.9537 0.3170 -0.9382 0.1472 -1.4205 3.5250 -0.2937 -0.3183 2.8765 -1.6034 -0.3547 2.2255 -2.2791 0.8966 1.2288
0.8122 1.4486 -6.2436 -3.4814 2.1848 4.7638 -5.3211 -1.0571 -3.0159 3.3210 2.7743 -2.0102 -4.4263 0.6880 -1.7182 1.2759 3.6722 -1.6066 2.7294 -1.8995 -1.8551 2.7840 -1.9353 1.4838 2.7550 0.2365 2.7219 -1.2289 -1.6247 -1.0271 -2.6060 -1.2163 -0.5682 -0.3277 -0.4164 -1.0487 2.4553 0.2084 -4.8727 3.2268 0.2005 -3.5676 -1.3512 1.8944 3.5418 0.6815 1.5750 -3.7797 -2.3668 -0.0198 4.8225 -3.5545 -1.5256 -1.6182 -0.4473 0.9429 2.9092 1.4978 0.0540 0.5106 -0.2941 -3.0639 4.1675 -1.2429 -2.2515 4.6605 0.6938 -2.5364 3.2487 1.6158 1.4651 -4.9676 -2.6364 1.2136 3.9771 1.0522 -0.8013 -0.5966 1.4016 1.4212 -2.4534 2.3214 0.2995 -2.4346 -4.4284 -0.5616 -2.0869 1.9692 2.7339 -1.9784 2.0960 -0.8517 -1.6916 -1.2889 -0.8677 4.2341 -0.3987 -0.3749 3.3410 0.6586 -1.2525 2.8347 2.0534 -0.7564 1.9236
-0.2040 1.4016 -6.1307 -2.7555 2.2105 5.7312 -3.4657 -1.3676 -4.2706 3.5671 0.9707 -2.2001 -4.9139 0.2452 -3.3534 2.7546 2.9830 -2.8606 1.2000 -2.2889 -1.3429 3.0312 -1.5554 1.3653 2.9591 0.6102 2.6046 -1.9908 -0.0381 -0.1028 -2.9945 0.3634 -1.1542 -0.6623 0.5959 -0.4244 0.6872 -0.5441 -4.8988 1.5755 -0.9994 -3.7605 -0.9467 2.0003 4.0617 0.3712 1.6403 -3.7363 -1.6072 0.0373 5.4996 -3.1751 -0.7420 -2.0729 -0.1716 1.0844 3.2361 1.5593 0.3283 0.5129 0.4578 -2.8939 4.4344 -0.4077 -2.1263 5.1167 1.2079 -2.3235 3.3343 0.7406 0.9617 -5.0414 -2.0845 1.2741 4.7566 0.4601 -0.3717 -0.1640 1.2116 1.1414 -2.5712 1.2196 -0.3131 -2.5325 -3.8965 -0.5605 -3.2374 2.5719 1.8041 -2.5832 1.0081 -1.0699 -1.3920 -0.6274 -0.7558 4.7014 0.0351 -0.2243 3.6475 1.0305 -1.0422 2.9504 2.2549 -0.4355 1.8772
5.7022 0.7467 -3.0980 -3.3456 -3.8434 2.9808 -5.6978 -1.7703 -0.8865 0.6617 0.4425 -4.5624 -5.3509 0.0184 -2.3748 1.3777 -1.6642 -4.1225 1.3417 3.0055 -0.5648 2.7847 -0.6754 2.7002 2.5448 1.7582 2.1684 -1.7509 0.4369 -0.8976 -2.5330 -0.2880 -1.9638 -0.3572 -0.1316 -0.8484 3.8028 2.3179 -2.9471 2.3004 2.4706 -3.0859 -1.2744 -2.8279 2.0954 3.4642 -0.1345 -2.5684 -2.7665 -1.5260 3.6426 -3.5385 -1.1097 -1.3232 -0.2302 -1.8398 2.3277 1.6405 0.0235 0.5280 -1.0666 1.7292 4.3813 -1.9811 0.7452 4.3644 0.1890 1.5550 3.6793 4.2256 0.9190 -3.3483 -2.2120 -2.8965 3.2865 0.5760 0.8030 -0.1278 1.9673 0.0976 -2.5847 1.6171 1.4729 -2.2806 -4.8808 -0.8990 -1.5779 1.3261 -0.4774 -3.8251 1.2316 1.8551 -0.9984 -1.7000 -0.4799 3.6435 -0.5202 -0.6647 3.0067 0.4674 0.4150 3.0140 1.9850 0.4158 2.1674
2.1526 4.9228 -0.1873 4.3125 0.9223 2.9581 -1.1524 -5.2334 -3.0518 2.5475 2.5793 -3.7495 -0.6429 -3.5782 -1.4609 1.3750 0.6639 -4.0756 0.6253 -0.8065 -0.6828 -2.6044 1.2737 2.9455 -3.6055 -0.6615 1.7109 -2.3449 -0.8751 -2.8196 -3.0015 -2.1726 -2.4113 -2.5348 0.1869 -1.7635 0.1011 3.6051 -0.6006 -0.5342 2.5406 -1.4711 1.9746 1.4074 2.3106 2.3410 2.6152 -1.0599 2.6665 -0.9069 3.0204 -2.3347 -3.2580 -3.1027 0.5847 0.9864 2.4280 -1.9776 0.8929 0.5031 -0.3931 -3.0517 3.0711 0.8901 -2.6617 3.1378 -1.4190 -2.0841 2.7402 1.5118 3.8843 -1.0714 2.8662 0.5849 3.2241 -1.6121 -0.0222 -0.5896 1.6758 1.4832 -1.8201 0.2749 1.3327 -1.4731 -1.3508 -3.9972 -2.4711 1.8221 1.5187 -3.3220 -0.1389 0.1357 -0.9100 1.2254 -1.2710 2.9129 0.2740 -0.3515 2.6300 -1.1165 -0.7901 2.5082 -2.4576 0.1859 1.9926
3.9075 0.7900 -3.6611 2.8918 1.4966 6.7991 -2.9096 -5.7434 -4.5553 1.2889 3.1567 -0.2665 -1.4414 -4.3781 -5.7853 0.7661 4.6502 -1.8956 -2.0878 1.6440 -2.0041 -1.2255 2.0156 1.4753 -2.8409 0.6496 2.7954 -1.3081 -2.2068 -2.3113 -1.7618 -2.3774 -3.7407 -2.2691 -1.2957 -1.5863 2.2577 -0.0871 -2.0484 1.1415 0.2542 -1.0835 1.2122 2.0402 5.0696 1.8117 2.0274 -3.2961 2.3627 -0.1976 5.0730 -2.5609 -3.5822 -3.8433 0.2488 1.5014 4.1196 -2.4387 0.0953 0.3719 0.7203 -2.3330 2.4720 1.5842 -1.9051 3.4077 -0.3386 -1.4553 2.0166 2.8681 1.1674 -2.6353 1.8012 0.9316 5.9230 -1.5270 -0.3102 -0.7144 0.6254 2.2988 -2.3959 0.1527 1.1101 -1.7199 -2.2509 -4.5513 -4.7793 0.8826 3.4931 -1.5123 -1.2102 0.9264 -1.5268 1.4281 -0.5799 3.9726 0.4447 0.2497 3.5525 -0.4620 -0.2015 2.4957 -1.7637 0.7062 1.8170
2.8517 1.2439 -6.6633 -3.5481 -1.5898 6.6391 -5.7517 -1.2567 0.4247 4.8682 -0.0615 -1.9515 -4.8294 -2.6134 -1.2604 5.9387 1.7701 -2.7562 1.7075 2.5509 -1.0227 -0.9142 -1.9426 0.5394 1.3337 -2.1527 1.5938 -1.9638 0.6567 -1.5281 -2.9811 -0.4332 -1.7603 -0.6053 0.2118 -2.0176 1.8502 0.1162 -4.7064 2.0575 -0.2792 -3.2599 -2.3910 -2.2346 4.5635 3.4443 2.0090 -4.3901 -2.3405 0.1543 5.3796 -3.7705 -0.6045 -0.5565 -1.3564 -1.8824 3.6038 1.0295 -0.6530 -0.3925 -0.2377 2.1149 2.9809 -1.0850 1.8145 3.9798 0.2392 1.0656 2.1001 3.0872 0.8064 -5.2401 -2.3451 -1.3158 5.7704 0.4385 0.5515 -0.9857 3.5334 1.6724 -2.9140 2.4111 0.8790 -2.4546 -4.7852 -1.5436 -0.5180 4.9022 1.1517 -2.5495 1.5592 1.4246 -1.5043 -1.4636 0.4340 4.2050 -1.0225 -0.5531 3.3922 -0.1693 -0.2092 2.2540 0.3085 -1.3022 1.0053
3.2463 -0.8213 -6.4020 -2.4621 -1.0309 7.6492 -4.0496 0.9371 -1.3734 3.7367 1.9791 -2.1645 -3.3212 -0.1854 -3.3073 3.1721 3.5395 -3.7127 -0.2997 1.5188 -1.9450 0.9497 -2.0481 1.9740 2.3080 -0.0345 2.5383 -1.1333 -2.4124 -0.6471 -2.2950 -2.2567 -1.5972 0.1199 -1.8257 -1.2528 2.6596 -1.3051 -4.0556 2.4684 -0.7308 -2.6681 -0.7838 -1.4997 5.8999 2.2213 0.9504 -5.0279 -2.6416 0.1560 5.4905 -3.1288 -1.1609 -1.1450 -0.1347 -1.0075 4.6931 1.4666 -0.3460 0.1863 -2.0906 1.6646 2.1085 -2.6543 1.3532 3.2876 -0.8384 1.0443 1.7254 3.1550 -0.2422 -5.0123 -1.6770 -0.4332 6.5073 0.3307 -0.4233 -0.7420 1.9204 1.4800 -3.6401 1.5852 0.4241 -2.7064 -3.4800 -0.1443 -2.0147 2.9900 2.4463 -3.1915 0.5145 0.5970 -1.8434 -1.9828 0.4292 4.1795 -0.8060 -0.1446 3.8385 -0.2301 0.1461 2.5247 1.1646 -0.6129 1.8462
5.6655 1.4419 -3.4084 -4.8466 -2.1243 3.4916 -4.7410 -2.1413 -1.3637 0.9243 1.6497 -4.5173 -3.6152 -3.7091 -0.0213 1.0459 -0.5697 -4.0633 0.5121 3.8294 -0.7515 2.5799 0.9852 2.0548 0.7934 1.5465 3.7084 -1.0319 -0.0562 -1.4182 -2.4433 -0.5721 -1.4579 -0.9946 1.1959 -0.5846 3.9512 3.1108 -2.8026 2.4709 3.4114 -2.6979 -3.1451 -0.3582 3.1799 3.4594 0.6743 -2.6088 -2.4863 -2.7918 3.2026 -2.4319 -1.9632 -1.0599 -1.8154 -0.0449 2.6746 0.3718 1.9444 1.2390 1.1861 -2.9823 2.5143 -0.0738 -3.3382 2.8142 1.5061 -1.5847 2.3105 4.1884 1.7409 -3.4009 -3.5457 -1.7749 2.8119 0.4257 1.4949 -0.1673 1.9815 0.9854 -2.4722 1.7728 2.3460 -2.0034 -3.6007 -2.6362 -0.7625 1.2620 0.5929 -3.7435 0.8885 2.6810 -0.9875 -1.1087 -2.3258 2.8690 -0.8311 -1.0221 2.6353 0.5554 -0.6295 2.3709 1.1702 0.9941 2.4157
0.7994 3.3310 -5.0507 -3.5006 2.3615 3.4729 -5.5839 -1.3651 0.5845 4.5578 1.9358 -2.0342 -5.1064 0.7932 -0.2189 3.3457 3.2162 -0.6049 2.4653 -2.0114 -2.5307 2.4466 -2.7722 1.2446 2.5939 -0.7784 2.7448 -1.2879 -1.0321 -1.1534 -2.5334 -0.1927 -1.0322 -0.0843 -0.1296 -1.0806 1.9609 1.1597 -4.8129 2.9102 0.3400 -3.9637 -1.2547 1.6987 2.6883 1.3229 2.4757 -2.7925 -2.8437 -0.0138 3.6297 -3.6157 -1.0296 -0.5606 -0.4224 0.6049 2.2081 1.8805 -0.4650 0.3269 -1.2273 -3.3713 3.3006 -2.1040 -2.4063 3.6226 0.0005 -3.0250 2.6150 1.7937 2.5475 -4.2310 -2.7029 1.2621 2.8163 1.1629 -0.9426 -0.8642 2.1967 1.5729 -1.9408 2.4590 0.2969 -2.5848 -4.7757 -0.4585 -0.0711 3.4052 2.3251 -1.4428 2.0980 -0.9331 -2.0543 -1.8279 -1.0358 3.2426 -0.6972 -0.7036 2.5770 0.2728 -1.7528 2.2571 1.8960 -1.5020 1.6930
0.3820 2.7997 -4.8283 5.1030 -0.0917 3.7316 -2.1784 -2.8939 -6.0311 2.4213 1.8839 -0.2055 -3.3775 -0.8892 -5.7500 0.8123 3.4238 0.2242 0.3130 -2.0585 -1.4716 -2.9182 -1.0232 2.4606 -1.1458 -2.5731 3.2959 -2.7754 -1.7961 -1.5340 -3.2605 -1.3996 -2.9055 -2.3950 -0.5554 -0.7576 1.2267 0.7102 -3.8146 1.7338 0.0737 -2.5369 3.0414 -1.2224 2.9672 -0.1320 2.2962 -2.4593 2.9308 0.9662 4.2133 -2.4412 -2.0575 -3.9021 1.6335 -1.0575 2.6312 -1.0388 -1.7472 0.9005 -0.6617 1.9772 4.4174 0.6690 1.9604 4.5966 -1.2957 0.9125 3.6681 0.9003 2.1666 -3.5621 3.7021 0.1226 3.2126 -1.0454 -0.6408 -0.0747 0.2687 1.5525 -1.1980 0.7569 0.2128 -1.4713 -2.7165 -1.8933 -5.2470 1.1720 2.3905 -0.3253 0.0606 -0.9213 -1.0723 1.4591 0.9139 3.9813 0.8844 -0.0586 3.2365 -0.5731 -0.0762 3.1023 -1.5156 -1.4072 2.5080
1.4136 3.2841 -5.4507 -3.8472 2.0458 4.0320 -5.0978 -0.5180 1.1742 4.1823 1.6510 -0.9325 -5.2875 -0.1030 -1.1300 3.0531 3.6136 -1.0752 2.9415 -1.8878 -2.2853 2.4925 -2.4062 1.3714 2.2850 -0.3298 2.7483 -1.1726 -1.4253 -1.2252 -2.5185 -0.7732 -1.4066 -0.0907 -0.3926 -1.4140 2.6184 1.2050 -4.8933 3.3203 0.4116 -3.8119 -1.5889 1.6474 3.1008 1.3989 2.4780 -3.1170 -3.0497 -0.2799 3.8109 -3.2459 -0.8419 -0.1565 -0.7082 0.6873 2.4480 1.6570 -0.2515 0.2799 -1.3239 -3.4498 2.8322 -2.2226 -2.5970 3.3504 -0.1058 -2.9349 2.2424 2.2180 2.5756 -4.3897 -3.0049 1.1104 3.2006 1.2272 -0.9455 -0.9430 2.0735 1.6282 -2.0542 2.5063 0.3580 -2.6133 -4.5743 -0.4631 -0.1008 3.1420 2.4196 -1.3326 2.3216 -0.8639 -1.9855 -1.9974 -1.1703 3.2413 -0.8993 -0.6759 2.6236 0.1272 -1.6092 2.1536 1.7566 -1.1972 1.7075
1.7713 1.1718 -6.4305 -4.9318 -0.0160 3.6601 -5.4334 -0.2979 0.1691 3.5144 2.5061 -1.3557 -5.2515 -0.5256 -2.1640 2.2140 3.8457 -2.6456 3.0901 -1.4738 -0.9337 3.0809 -0.0717 2.0119 1.5367 1.7200 2.8114 -1.1072 -1.3598 -1.0824 -2.4342 -1.0352 -1.7196 -0.1964 -0.1691 -1.2251 3.0394 -0.0825 -4.7252 3.5431 -0.1015 -3.2973 -2.8039 0.8225 2.7229 1.2673 1.5418 -4.0396 -2.8605 -1.2685 4.1343 -3.4673 -1.1141 -0.7087 -1.4364 0.4858 2.3515 1.2612 0.7962 0.4627 0.6054 -2.6641 4.2380 -0.7056 -2.4915 4.4717 1.3127 -1.7234 3.3944 2.3606 1.2323 -5.0438 -3.5874 -0.4198 3.1061 1.0587 -0.3638 -0.4175 1.7625 1.4698 -2.6041 2.4748 0.2236 -2.3720 -4.7341 -0.6294 -0.9728 2.5134 2.7300 -2.2387 2.3087 -0.5715 -1.2489 -1.4073 -1.4006 3.8274 -0.7686 -0.5472 2.9929 0.6750 -0.6976 2.7922 1.7353 0.4791 2.0783
1.0025 2.0745 -5.2415 4.9238 -0.2570 3.6933 -0.5744 -2.6796 -5.5895 1.2372 2.3863 0.0505 -1.4465 -0.5192 -5.2725 -0.4059 3.7145 -0.7759 0.4465 -2.0214 -1.1276 -3.1393 -0.7266 2.3963 -1.5906 -2.4116 3.4034 -2.6779 -1.9096 -1.6400 -2.9787 -1.5532 -3.0743 -2.4704 -0.6432 -0.8410 1.7830 0.4638 -3.5342 1.8982 0.1904 -2.0479 2.7996 -1.3018 2.9766 -0.2289 1.8665 -3.1063 2.8062 0.8816 4.2364 -2.1502 -2.3639 -3.9424 1.3912 -1.0794 2.6771 -1.2346 -1.6804 0.9967 -0.7344 2.0459 4.5165 0.5965 1.9656 4.6754 -1.4266 1.0247 3.7595 1.1358 1.8132 -3.7626 3.5191 0.0143 3.2129 -1.1884 -0.6251 -0.0326 -0.1846 1.4724 -1.6419 0.5981 0.2728 -1.4083 -1.3964 -1.7786 -4.9432 0.1911 2.6454 -0.7687 0.0234 -0.8873 -0.9059 1.3285 0.8924 4.0352 0.6971 -0.0500 3.2971 -0.7607 0.0087 3.1726 -1.7894 -1.2454 2.5567
-0.3402 2.9310 -4.8384 3.7852 2.8566 3.5166 -1.3003 -1.1409 -5.8272 -0.8637 2.7978 0.5505 -0.6074 -3.2357 -6.6343 -2.7565 3.1677 -0.6412 1.4812 -0.4328 0.1136 -2.4229 -0.2265 3.4628 -2.3033 -2.4750 2.3713 -0.9302 -2.4465 -2.0408 -0.4164 -1.7460 -3.2756 -1.6526 -1.4547 -1.1607 1.1145 2.0537 -3.0529 1.2331 1.7324 -1.5792 1.5595 2.0693 2.7802 -1.3690 1.8769 -2.8578 3.2385 0.4532 3.7277 -0.3461 -2.7014 -4.3606 0.5368 1.0444 2.9411 -1.6345 -0.4020 1.0443 1.5729 -2.8874 3.9987 2.5086 -1.9245 4.0327 0.2314 -2.5684 3.5553 -0.2104 2.7213 -3.3505 2.6798 1.8655 3.7832 -0.8044 -1.0638 0.0237 -1.2205 1.4654 -1.4036 0.1060 0.9332 -1.1386 -0.7407 -2.3905 -5.6489 -1.6984 2.5703 -0.4890 0.3563 -0.1459 -0.3060 2.1543 -0.5707 3.6583 0.8951 -0.2538 3.2764 -0.1068 -1.3166 3.1835 -1.7290 -1.1556 2.5854
4.6597 3.7112 -3.8463 -1.6431 -4.9328 2.1110 -5.4144 -0.5767 0.5166 1.5532 -0.8507 -3.6553 -5.0220 0.6721 -1.4361 3.5074 -0.8449 -4.8052 2.6515 -0.9702 -0.2792 1.9031 0.6797 2.8805 0.6942 2.8676 2.9507 -1.2327 -0.9019 -0.9210 -2.5264 -0.7623 -1.6826 -0.4768 0.4036 -0.9562 2.6699 3.1002 -2.5374 1.7095 2.0010 -2.1447 -0.1544 -2.9726 1.8727 4.3588 1.3675 -3.1483 -2.5281 -2.6925 2.6747 -3.6241 -1.1492 -0.8190 0.1089 -1.6101 2.3110 0.8275 1.6036 0.7355 -3.0435 0.9395 3.4173 -3.2750 -0.3746 3.2651 -1.7186 1.4654 3.1643 3.6418 2.6258 -3.5951 -1.2921 -3.5776 2.6735 0.6995 0.3464 -0.0180 3.4128 0.2831 -2.6647 2.4271 0.8058 -1.7370 -4.6909 -0.2910 -0.6235 2.8497 -0.5013 -3.8311 2.0090 0.0007 -0.6885 -2.1921 -1.2506 2.8662 -0.9390 -0.7768 2.6766 -0.6934 0.6595 2.8183 0.7833 1.5030 2.4550
3.4352 0.8033 -5.3107 1.9174 -0.2706 5.8087 -3.2889 -5.4450 -1.4882 3.4826 3.3501 -0.8233 -4.5128 -3.4383 -1.5455 1.7756 4.3984 -1.8894 2.0356 -0.8741 0.2253 -2.0855 2.7814 1.0754 -2.9134 1.1300 -0.6123 -0.6037 -1.6908 -2.2511 -2.0235 -2.0288 -1.8647 -0.3493 -0.2075 -2.1160 3.8485 0.0691 -2.9952 3.7575 0.4480 -1.5327 1.0944 0.9101 3.8076 2.0834 1.7796 -3.4944 -0.1160 -1.1199 4.7083 -2.1413 -3.4693 -1.7644 -0.0385 1.1349 2.9222 -0.3973 1.4305 -0.2830 -3.0104 -1.7962 2.4374 -2.1152 -1.9179 3.4313 -2.9293 -0.6664 1.5350 3.4515 1.2421 -3.8674 0.6800 0.1312 5.0428 0.1003 0.1161 -0.7149 1.9058 1.9948 -2.0042 2.4127 0.8891 -1.2144 -3.3751 -4.0712 -1.5962 2.3610 3.3684 -1.5796 1.5968 0.0068 -0.5204 -1.0892 -0.9084 3.5985 -1.0146 0.1609 2.7736 -1.9727 0.2742 1.6733 -1.9617 1.4854 0.4286
2.0307 0.7172 -5.8285 3.1440 -2.5195 4.3762 -3.6080 -4.3662 -3.1732 2.8938 2.1006 -0.5788 -1.8226 -3.2967 -4.2655 2.5906 3.6094 -2.2453 0.7758 -1.2821 -0.0439 -0.2744 3.2677 2.5931 -2.4211 2.6619 1.4599 -2.6691 -0.1072 -1.4638 -2.4175 -0.9430 -2.6960 -1.5937 0.9431 -1.3313 2.2032 -0.6239 -3.7643 2.3084 -0.5896 -2.2541 2.3198 -0.5239 3.1926 1.1333 1.6322 -3.7136 0.7457 -2.0182 4.4902 -3.0325 -2.2405 -2.5066 1.2221 0.4206 3.0407 -0.2147 1.8042 0.5038 -2.7115 -0.6889 4.0205 -1.6876 -1.4753 4.3900 -2.4498 0.5165 3.2601 2.2214 0.7781 -4.3349 2.1312 -1.4003 4.4180 -0.6704 0.5915 -0.1936 1.2005 1.6243 -2.1950 1.2723 0.2579 -1.6952 -2.7679 -3.2883 -3.3693 2.2998 2.5466 -1.7108 0.5387 -0.2151 -0.6172 -0.3339 -1.0931 4.0468 -0.0733 0.0429 3.3609 -1.1936 0.8768 2.9236 -1.0898 2.2805 1.9044

>  <OB_ATOM_TYPES> (1etrB1)
C.3 C.3 N.pl3 O.co2 N.pl3 O.co2 O.2 O.2 O.2 C.3 C.3 C.3 C.3 C.3 C.3 C.3 C.3 N.pl3 N.pl3 N.3 C.ar C.ar C.ar C.3 C.3 C.3 C.3 N.am C.cat C.2 C.2 C.ar C.ar C.ar S.O2

>  <ENSEMBLE_RMSD> (1etrB1)
1.450 1.696 2.083 2.175 2.218 2.251 2.429 2.441 2.444 2.597 2.608 2.618 2.667 2.721 2.754 2.763 2.779 2.785 2.840 2.873 2.882 2.925 2.927 3.021 3.116 3.125 3.158 3.166 3.180 3.181 3.212 3.292 3.302 3.308 3.311 3.334 3.338 3.381 3.394 3.448 3.449 3.453 3.488 3.515 3.580 3.622 3.687 3.839 3.866 4.045

$$$$
