
 OpenBabel03071213D

 37 40  0  0  0  0  0  0  0  0999 V2000
  -42.6090  -32.7600   41.1140 N   0  0  0  0  0
  -43.4470  -30.7100   40.4430 N   0  0  0  0  0
  -38.3210  -29.3770   44.2970 O   0  0  0  0  0
  -34.6750  -28.0830   41.1030 O   0  0  0  0  0
  -36.1430  -32.1060   47.6390 O   0  0  0  0  0
  -38.5750  -31.7440   48.0490 O   0  0  0  0  0
  -34.5750  -26.2790   45.7310 C   0  0  0  0  0
  -33.6300  -26.7280   44.6420 C   0  0  0  0  0
  -35.8200  -27.0390   45.3910 C   0  0  0  0  0
  -34.0690  -26.3880   43.2110 C   0  0  0  0  0
  -36.3370  -26.7910   43.9920 C   0  0  0  0  0
  -36.8040  -31.2460   44.7000 C   0  0  0  0  0
  -37.1950  -29.2680   40.6250 C   0  0  0  0  0
  -37.7430  -31.5420   45.7410 N   0  0  0  0  0
  -36.5780  -29.8560   42.8920 N   0  0  0  0  0
  -37.2690  -25.0020   49.5860 C   0  0  0  0  0
  -38.5750  -25.3700   49.3230 C   0  0  0  0  0
  -36.2550  -25.9070   49.4020 C   0  0  0  0  0
  -38.9180  -26.6390   48.9050 C   0  0  0  0  0
  -38.7510  -31.2500   40.7230 C   0  0  0  0  0
  -39.6770  -29.0660   40.5420 C   0  0  0  0  0
  -40.0100  -31.8040   40.7820 C   0  0  0  0  0
  -40.9350  -29.6180   40.6020 C   0  0  0  0  0
  -35.5410  -27.9820   48.5800 C   0  0  0  0  0
  -35.8140  -29.1890   47.9700 C   0  0  0  0  0
  -38.1890  -28.7440   48.0850 C   0  0  0  0  0
  -36.8080  -28.7550   41.9950 C   0  0  0  0  0
  -35.3110  -27.0940   42.9980 N   0  0  0  0  0
  -42.4130  -31.4950   40.7260 C   0  0  0  0  0
  -37.3310  -30.0430   43.9490 C   0  0  0  0  0
  -38.5810  -29.8840   40.6330 C   0  0  0  0  0
  -35.5080  -27.9520   41.9950 C   0  0  0  0  0
  -41.1240  -30.9810   40.7110 C   0  0  0  0  0
  -36.5890  -27.1350   48.8700 C   0  0  0  0  0
  -37.9070  -27.4960   48.5970 C   0  0  0  0  0
  -37.1270  -29.5950   47.7860 C   0  0  0  0  0
  -37.3520  -31.2710   47.2640 S   0  0  0  0  0
  1 29  1  0  0  0
  2 29  2  0  0  0
  3 30  2  0  0  0
  4 32  2  0  0  0
  5 37  2  0  0  0
  6 37  2  0  0  0
  7  8  1  0  0  0
  7  9  1  0  0  0
  8 10  1  0  0  0
  9 11  1  0  0  0
 10 28  1  0  0  0
 11 28  1  0  0  0
 12 14  1  0  0  0
 12 30  1  0  0  0
 13 27  1  0  0  0
 13 31  1  0  0  0
 14 37  1  0  0  0
 15 27  1  0  0  0
 15 30  1  0  0  0
 16 17  1  0  0  0
 16 18  2  0  0  0
 17 19  2  0  0  0
 18 34  1  0  0  0
 19 35  1  0  0  0
 20 22  2  0  0  0
 20 31  1  0  0  0
 21 23  1  0  0  0
 21 31  2  0  0  0
 22 33  1  0  0  0
 23 33  2  0  0  0
 24 25  2  0  0  0
 24 34  1  0  0  0
 25 36  1  0  0  0
 26 35  1  0  0  0
 26 36  2  0  0  0
 27 32  1  0  0  0
 28 32  1  0  0  0
 29 33  1  0  0  0
 34 35  2  0  0  0
 36 37  1  0  0  0
M  END
>  <MOLID> (1etsB1)
1etsB1

>  <SMILES_CANONICAL> (1etsB1)
O=C(N[C@@H](C(=O)N1CCCCC1)Cc1ccc(cc1)C(=N)N)CNS(=O)(=O)c1ccc2c(c1)cccc2	

>  <FINGERPRINT> (1etsB1)
0000000000000000000000001001000000000001100000000011001000000000000000010001000000000001000000000000010110110001000001100000000000000000000010001000000000000000000000000000000000000000000000000000000000000010000000000000000000100000000000000001000000001100000000000000000000001001100000000000000000001000000010001100001100001000001100000010000000000000011100000000000110111000000000001000011000000000100010000000001000000000000000000010000000000001100000000010000000000000000000000000000000001100100000000000000000000000000000000010000000000000000000100000000000000000000000000000000001100000000000000000100000000000000000000110011000000001100000000000010000000001000000000011100000100100100001100000100100000000000000000000000000000011101010110101000000000000001110000000001000000000000010000000000010000000000000000000000000000100010000000000000000000000000000000001000000000000000000000000110000001100000000000000010000001000001000000000011000000000000010110110000000000100010000000000001000000000000000010010011001100000

>  <MACCS166> (1etsB1)
000000000000000000000000010000011000010000100000011001100111100100100000101111101001110100110110011001011100011100001111110110011111000111010100111100101111011010111000

>  <OB_MW> (1etsB1)
521.21

>  <OB_logP> (1etsB1)
4.7427

>  <OB_PSA> (1etsB1)
153.83

>  <OB_MR> (1etsB1)
146.757

>  <OB_ATOMIC_CHARGES> (1etsB1)
0.2047061662 0.2047061662 -0.2716948219 -0.2730076631 -0.1515834718 -0.1515834718 0.0035128289 0.0215610379 0.0215610379 0.0934478271 0.0934478271 0.2016978006 0.0573599429 -0.0678418682 -0.1962101194 5.7e-09 4.884e-07 9.749e-07 4.00934e-05 -0.0039429009 -0.0039429009 0.0076707409 0.0076707409 0.0013705831 0.0199557515 0.0199552649 0.1755741922 -0.2781505387 0.476608146 0.2615023726 -0.0199508077 0.2458351553 0.0974576845 7.96986e-05 0.0013309784 0.1235634316 0.0772916271

>  <MCT_HBD> (1etsB1)
4

>  <MCT_HBA> (1etsB1)
9

>  <ENSEMBLE_TOTAL> (1etsB1)
47

>  <ENSEMBLE_COORDS> (1etsB1)
-2.0954 -3.3409 -7.2644 -4.3373 -3.4285 -6.5870 0.0594 -2.2947 -0.6505 -0.5827 2.6095 -0.5749 1.8006 -3.0299 3.9983 -0.5070 -2.2231 4.4960 3.8383 0.9868 0.1666 2.8944 -0.1368 -0.2130 3.0619 2.2634 0.4225 2.0495 0.2545 -1.4115 2.2181 2.6286 -0.7845 -0.9909 -2.0267 1.4994 -2.0292 0.6901 -2.0999 0.2102 -2.6468 2.0836 -1.0218 -0.3074 -0.1251 1.3952 4.5259 4.1668 0.0533 4.1880 3.7410 2.3119 3.5562 4.3182 -0.2771 2.9055 3.5154 -1.7379 -0.0278 -4.4875 -3.1666 -1.3244 -3.0156 -2.0012 -0.8512 -5.5190 -3.4238 -2.2357 -4.1175 2.9566 1.0947 4.2197 2.6191 -0.1892 4.0201 0.3520 0.4317 3.4905 -0.7401 0.3484 -1.3795 1.3743 1.5197 -1.1809 -3.1282 -2.9645 -6.4271 -0.5704 -1.5858 0.1277 -2.3309 -0.2826 -3.1842 0.0005 1.6091 -0.9920 -2.8706 -1.9991 -5.3215 1.9711 2.1585 4.0695 0.7025 1.8369 3.6873 1.2637 -0.5430 3.6596 0.6787 -2.1694 3.6537
-3.3578 -2.3876 -7.6125 -4.2336 -3.9271 -6.0821 0.4936 -2.4643 -1.1512 -0.4104 2.5683 -0.9688 2.8716 -2.1692 3.6152 0.5471 -2.9465 4.1239 3.8945 1.2522 0.5834 3.0398 0.0444 0.2562 3.0685 2.5219 0.5206 2.3561 0.2151 -1.0883 2.3748 2.6540 -0.8229 -0.1375 -2.4722 1.1584 -1.9135 0.4543 -1.8626 1.2381 -2.5201 1.6926 -0.4685 -0.5625 -0.2189 0.7320 4.5466 4.3393 2.1203 4.1546 4.4603 -0.2018 3.6244 4.0546 2.4729 2.8711 4.2802 -2.5613 -1.7804 -2.8274 -2.6060 0.1963 -4.2292 -2.9543 -2.5566 -3.8534 -3.0648 -0.6334 -5.3300 -0.8380 1.2091 3.5568 -0.4856 -0.0760 3.3934 1.8343 0.4583 3.7680 -0.4736 0.2076 -1.4440 1.6125 1.4609 -1.1340 -3.6252 -2.7966 -6.3190 0.0130 -1.8568 -0.1994 -2.3311 -0.3591 -3.0350 0.2227 1.5234 -1.1310 -3.2102 -1.9599 -5.1547 0.1636 2.2253 3.8587 1.4718 1.8574 3.9646 0.9021 -0.4698 3.4919 1.4439 -2.1069 3.3463
-4.5875 -3.0120 -6.1899 -2.7786 -2.1770 -7.4257 0.6718 -2.6624 -0.6307 0.8262 1.7584 0.2331 2.2569 -2.8267 4.4327 -0.2432 -2.8420 4.5351 3.8931 1.6652 -3.5866 2.9041 0.5201 -3.6846 3.8866 2.2674 -2.1954 1.5173 0.9455 -3.2432 2.4873 2.7096 -1.8176 -0.3339 -2.5044 1.5446 -1.4700 0.5932 -1.6783 0.9340 -2.7471 2.2591 -0.3197 -0.6715 0.0480 0.0672 4.1431 5.5446 -1.1083 3.3651 5.8746 1.1027 3.5617 4.9167 -1.1528 2.0578 5.5696 -2.5071 -1.4444 -2.7258 -1.9515 0.4612 -4.1172 -2.9464 -2.1364 -3.7925 -2.4646 -0.2676 -5.2661 2.1820 1.4935 3.8891 2.1465 0.1802 3.6081 -0.0359 -0.0227 4.6110 -0.1384 0.0579 -1.1862 1.5683 1.5998 -1.9497 -3.4361 -2.2556 -6.3015 0.0836 -1.9802 0.2014 -1.9460 -0.1135 -2.8998 0.7803 1.2235 -0.8747 -2.9155 -1.5260 -5.1109 1.0689 2.1435 4.5733 -0.0289 1.4061 4.9035 1.0071 -0.6170 4.0051 0.9808 -2.3462 3.9270
-3.9060 -3.4624 -6.5520 -1.9614 -2.5562 -7.4978 0.2487 -2.4210 -0.4285 -0.3165 2.1124 0.4073 1.6910 -3.3702 4.2832 -0.6473 -2.5942 4.6691 3.6617 2.2155 -2.5873 2.8314 0.9782 -2.8697 3.3198 2.8205 -1.2396 1.3501 1.2509 -2.6952 1.8305 3.0725 -1.1191 -0.9597 -2.3151 1.6563 -1.9359 0.6070 -1.8042 0.2142 -2.9350 2.2929 -0.9682 -0.5200 0.1209 1.2205 4.1665 4.7532 -0.1002 3.8376 4.2594 2.1423 3.2001 4.8954 -0.4078 2.5633 3.9658 -2.6274 -1.5520 -2.8866 -1.9234 0.3071 -4.2748 -2.8134 -2.3307 -3.9674 -2.1650 -0.5179 -5.4476 2.8152 0.7492 4.7180 2.4963 -0.5278 4.4517 0.2490 0.1001 3.8539 -0.6625 0.2367 -1.0700 1.1067 1.8514 -1.3980 -2.8081 -2.6242 -6.5074 -0.4650 -1.7844 0.3394 -2.1208 -0.1974 -3.0427 0.0258 1.5023 -0.6051 -2.5653 -1.7937 -5.2945 1.8272 1.8119 4.5717 0.5773 1.4975 4.1270 1.1598 -0.8761 4.0205 0.5860 -2.5022 3.9020
-5.5348 -2.6830 -3.0179 -4.5433 -1.9470 -5.0071 1.7692 -2.0923 -1.5298 1.6504 2.7572 -0.4774 1.9045 -3.0815 3.6857 -0.5138 -3.4111 3.1564 5.2997 1.1939 -3.2063 4.2931 0.0909 -2.9461 5.0162 2.3875 -2.3156 2.8773 0.6026 -3.1339 3.5939 2.8783 -2.5105 2.3106 -2.1644 0.8019 -0.5518 1.0084 -0.8239 1.0958 -2.8401 1.2933 1.4635 -0.2024 -0.2062 -2.0094 3.4407 3.8397 -2.5369 2.8137 2.6461 -1.0557 2.8220 4.5546 -2.0828 1.6082 2.2658 -1.9786 0.6674 -2.8595 -2.1724 -0.8665 -0.9885 -2.9281 0.0029 -3.5428 -3.1774 -1.6009 -1.7356 0.5038 0.8394 4.9037 0.9511 -0.3697 4.5279 -0.5561 -0.4015 2.6475 0.8542 0.6147 -1.2245 2.6471 1.7966 -2.3394 -4.5730 -1.9634 -3.7024 1.8252 -1.5092 -0.4524 -1.5747 0.2045 -1.5416 1.7427 1.8350 -1.2871 -3.5428 -1.1798 -2.9604 -0.5395 1.5195 4.1451 -1.0447 0.9217 3.0290 0.3979 -1.0239 3.3633 0.7198 -2.6677 2.9488
-5.0786 -2.6243 -3.2433 -4.7154 -1.0441 -4.9316 1.8895 -2.5037 -1.3465 2.7678 1.9489 -0.1786 1.4626 -3.2627 3.9101 -0.9295 -3.4273 3.2066 4.0066 1.7987 -4.9104 2.9054 0.7956 -4.6257 4.6431 2.2791 -3.6214 1.8836 1.3551 -3.6538 3.5904 2.8592 -2.6987 2.1770 -2.5786 1.0313 -0.1022 0.8823 -0.7465 0.8475 -3.0703 1.4377 1.7497 -0.5470 -0.0979 -1.7137 3.4269 4.6550 -2.8441 2.5710 4.3609 -0.4636 2.9510 4.5327 -2.6396 1.2988 3.9801 -1.5979 -1.0772 -1.2558 -1.8767 0.9915 -2.4857 -2.5743 -1.6700 -1.9668 -2.9614 0.3673 -3.2236 1.1295 1.0493 3.9476 1.3329 -0.2189 3.5544 -1.0420 -0.6165 3.4396 1.2570 0.3298 -1.1339 2.5387 1.8905 -2.4757 -4.4010 -1.5374 -3.7645 1.9152 -1.9009 -0.2794 -1.2031 0.2902 -1.5555 2.2548 1.4678 -1.1892 -3.2821 -0.9192 -2.9915 -0.2228 1.5760 4.1057 -1.2868 0.7659 3.8400 0.2083 -1.0961 3.3125 0.3753 -2.8006 3.0614
-5.1545 -2.6227 -5.7052 -3.4974 -1.9634 -7.2269 0.5692 -2.7946 -0.6412 1.7209 1.5327 -0.3542 3.0676 -1.7007 4.1304 0.8193 -2.7218 4.5396 4.1496 0.4562 -4.4228 2.9183 -0.4201 -4.2988 4.4383 1.1600 -3.1116 1.7256 0.3729 -3.8000 3.2327 1.9658 -2.6706 0.1197 -2.1594 1.6270 -1.0160 0.7229 -1.8509 1.4870 -2.0349 2.1680 0.0769 -0.5782 -0.1354 -1.2629 3.7959 6.4113 -1.9109 2.6032 6.9148 -0.2749 3.6917 5.5072 -1.5090 1.3935 6.4910 -2.4365 -1.2069 -2.6368 -1.8750 0.5815 -4.1742 -3.1037 -1.8696 -3.5996 -2.6335 -0.1079 -5.2033 1.2245 2.2530 4.0300 1.6187 1.0430 3.5995 0.0384 -0.0437 5.0615 0.2438 -0.0268 -1.4612 2.0627 1.1155 -2.6001 -3.9697 -1.9801 -6.0104 0.2947 -1.9061 0.1582 -1.7598 0.0436 -2.9463 1.4042 0.9501 -1.3917 -3.1998 -1.2979 -4.9323 0.1656 2.3857 5.0259 -0.4311 1.2616 5.5147 1.0160 -0.1533 4.1446 1.6409 -1.7403 3.8497
-5.4244 -2.3409 -5.2519 -3.9025 -1.5764 -6.8634 0.9393 -2.7466 -0.7603 1.8365 1.5386 -0.2427 3.5320 -1.6477 3.9006 1.4448 -2.9170 4.4019 3.9141 0.8038 -4.6267 2.7330 -0.1290 -4.4416 4.3309 1.4208 -3.3061 1.5843 0.5669 -3.7380 3.1580 2.1222 -2.6507 0.5260 -2.3543 1.5687 -0.9945 0.7800 -1.5476 1.8777 -2.0388 2.0644 0.2473 -0.6437 -0.0454 -1.8370 3.3875 5.5780 -2.2507 2.8787 4.2873 -0.7712 2.8537 6.1965 -1.5776 1.8648 3.7178 -2.4504 -1.1167 -2.3468 -2.0462 0.7874 -3.7938 -3.1961 -1.7177 -3.2918 -2.8870 0.1620 -4.7993 1.1428 1.1770 6.2429 1.8174 0.1650 5.6749 0.3160 0.1511 3.7838 0.2988 0.0224 -1.3248 2.0455 1.2057 -2.5203 -4.2719 -1.6709 -5.6155 0.6040 -1.9638 0.1220 -1.8191 0.1651 -2.6226 1.4551 1.0032 -1.2835 -3.4159 -1.0528 -4.5651 -0.0224 1.7585 5.5870 -0.4189 1.2685 4.3773 1.3901 -0.3707 4.4002 2.0923 -1.7961 3.7350
-4.8925 -3.3112 -4.2349 -3.8225 -2.4353 -6.1272 1.6107 -2.3195 -1.0437 2.2548 2.1842 -0.7489 1.2158 -3.3018 3.8763 -1.2392 -2.9472 3.5939 3.6182 1.7341 -5.4291 2.6464 0.6298 -5.0611 4.1581 2.4160 -4.1874 1.5432 1.1456 -4.1585 3.0209 2.9409 -3.3351 1.6791 -1.8370 1.3032 -0.6025 0.9333 -1.6048 0.3282 -2.1902 1.7777 1.1045 -0.1786 -0.2856 -0.4293 3.7249 6.1536 -0.4924 3.8056 4.7096 -0.2258 2.5385 6.7491 -0.3657 2.6917 3.9690 -1.8944 0.4970 -3.7166 -1.9263 -1.1470 -1.9350 -2.6785 -0.2793 -4.4875 -2.7467 -1.9995 -2.7753 0.1583 0.0275 6.5939 0.2980 -1.0854 5.8564 -0.0284 0.1625 3.8131 0.8241 0.4193 -1.5683 2.0998 1.8678 -3.0309 -3.9671 -2.4738 -4.8306 1.4626 -1.5011 -0.1426 -1.4830 0.0351 -2.4006 1.7838 1.5826 -1.7141 -3.1106 -1.5795 -4.0004 -0.0742 1.3201 5.9593 -0.1494 1.3912 4.5989 0.2021 -1.0176 4.4143 0.1194 -2.4438 3.4499
-4.8169 -1.5478 -4.9386 -4.9238 -3.0583 -3.1538 1.9376 -2.0547 -1.2613 1.6454 2.8615 -0.4545 1.9329 -2.3858 3.9870 -0.0797 -3.7490 3.3789 5.4083 1.3391 -3.1991 4.4757 0.1918 -2.8637 5.1115 2.5494 -2.3356 3.0257 0.6237 -2.9704 3.6513 2.9487 -2.4337 2.5124 -1.9896 1.0647 -0.4620 1.0085 -0.7311 1.4550 -2.9122 1.5213 1.5683 -0.1152 -0.0300 -2.1728 3.4096 3.5994 -1.0091 3.3425 4.4579 -2.5189 2.3453 2.8572 -0.2594 2.2282 4.4864 -1.6280 -1.1585 -1.2711 -2.2795 0.8802 -2.4095 -2.5618 -1.8658 -1.9305 -3.2960 0.1210 -3.1173 -2.1086 -0.0559 2.1209 -1.3572 -1.1684 2.1436 0.1966 -0.1476 3.6794 0.9621 0.6461 -1.0969 2.7934 1.8131 -2.1719 -4.4313 -1.9701 -3.6801 1.9741 -1.4203 -0.2124 -1.4625 0.2618 -1.5383 1.8120 1.8934 -1.1960 -3.4221 -1.2006 -2.8953 -1.7273 1.1202 2.8926 -0.6099 1.0692 3.6715 -0.1509 -1.2133 2.9376 0.8156 -2.6402 3.0926
-4.1521 -3.2794 -6.1941 -2.4320 -2.2445 -7.3966 -0.0878 -2.8618 -0.5189 0.7675 1.5296 0.5721 1.7571 -3.0682 4.3869 -0.7198 -3.0137 4.7298 2.5977 3.2770 -3.3770 2.8054 3.4519 -1.8849 1.3659 2.4344 -3.6399 2.8811 2.1073 -1.1829 1.4827 1.0971 -2.9336 -1.0014 -2.5589 1.6801 -1.4246 0.6350 -1.6446 0.2345 -3.0013 2.3550 -0.6605 -0.7312 0.2095 1.7207 4.0758 4.6631 2.9194 3.3098 4.9318 0.5856 3.4406 4.3310 2.8998 1.9696 4.8302 -1.5613 0.3294 -4.1386 -2.5919 -1.3071 -2.6802 -1.9123 -0.3770 -5.2288 -2.9585 -2.0796 -3.8537 -0.6965 1.2873 3.9178 -0.7321 -0.0514 3.8409 1.6233 -0.1999 4.3517 -0.2330 -0.0284 -0.9781 1.7399 1.2788 -1.5168 -3.0775 -2.4125 -6.2742 -0.5228 -2.0963 0.3352 -1.8966 -0.1624 -2.8123 0.7773 1.0186 -0.5476 -2.6374 -1.6294 -5.0806 0.5420 1.9847 4.2373 1.6754 1.2607 4.4643 0.4711 -0.8256 4.0489 0.4519 -2.5589 3.9979
-4.7227 -3.5339 -4.0563 -3.7894 -2.6838 -6.0316 1.8879 -2.1259 -0.9204 2.0206 2.5339 -0.9629 0.8323 -2.9517 3.9885 -1.5678 -2.9541 3.2731 4.3187 1.4025 -5.1830 3.3501 0.2959 -4.8115 4.5939 2.3128 -4.0027 2.0850 0.8441 -4.1779 3.2984 2.8524 -3.4319 1.5469 -1.5708 1.3865 -0.5335 0.9660 -1.7379 0.2072 -2.1362 1.6388 1.2093 0.0196 -0.3367 -0.3221 3.5554 6.6715 0.6868 2.6697 7.2139 -1.0812 3.1528 5.6393 0.8741 1.4548 6.6712 -1.6765 -1.2646 -1.9883 -1.9340 0.4156 -3.7154 -2.4267 -2.1403 -2.6812 -2.7865 -0.5099 -4.4426 -1.7086 1.3857 3.9155 -1.5107 0.1795 3.3596 0.2630 -0.3064 4.9243 0.9116 0.5108 -1.6632 2.4179 1.7537 -3.0994 -3.8677 -2.6812 -4.7290 1.5595 -1.2889 -0.0871 -1.3788 0.0455 -2.5469 1.8155 1.7106 -1.8550 -2.9990 -1.7470 -3.9576 -0.8942 1.8344 5.0405 0.0691 1.0066 5.5373 -0.4838 -0.6977 3.8763 -0.2645 -2.3101 3.2822
-3.8825 -3.3423 -6.2183 -1.9852 -2.4664 -7.2817 0.1780 -2.6429 -0.4208 0.1686 1.9322 0.6914 1.3641 -3.1808 4.5150 -1.1121 -2.8835 4.7013 2.4895 3.1647 -3.4106 2.0373 3.8704 -2.1475 1.7496 1.8529 -3.5882 2.1993 2.9646 -0.9427 1.8914 0.9711 -2.3612 -1.1335 -2.5544 1.5919 -1.5539 0.6732 -1.5920 -0.0328 -3.1266 2.3916 -0.7136 -0.6182 0.2886 2.2415 3.8291 4.3074 3.3229 2.9164 4.6137 1.0177 3.3493 4.0317 3.1070 1.5908 4.5947 -2.3716 -1.4585 -2.6394 -1.6829 0.3816 -4.0596 -2.6308 -2.2312 -3.7084 -2.0121 -0.4327 -5.2184 -0.5655 1.3726 3.7479 -0.7770 0.0469 3.7202 1.5384 -0.3830 4.2291 -0.3255 0.1609 -0.8655 1.5258 1.7020 -1.1623 -2.7712 -2.5208 -6.2419 -0.4668 -1.9716 0.3780 -1.8372 -0.1180 -2.8197 0.4649 1.3432 -0.3474 -2.4413 -1.6966 -5.0457 0.7620 1.9124 4.0225 1.7886 1.0525 4.2758 0.3149 -0.8702 3.9584 0.1339 -2.5890 4.0121
-3.6019 -2.8063 -6.2201 -4.4986 -3.6375 -4.2257 1.5071 -2.3137 -0.9024 1.9850 2.3951 -0.7790 0.5313 -2.9242 4.0964 -1.8785 -2.7592 3.4273 4.3750 1.3742 -4.9980 3.3796 0.2736 -4.6848 4.6501 2.2359 -3.7811 2.1168 0.8265 -4.0515 3.3596 2.7682 -3.1921 1.3057 -1.7584 1.4193 -0.5650 0.9260 -1.7463 -0.0748 -2.1902 1.7151 1.0637 -0.1178 -0.2725 0.0397 3.7599 6.4536 0.9699 2.8070 7.0215 -0.7758 3.3890 5.4528 1.0244 1.5558 6.5365 -1.5810 0.2025 -3.9250 -2.0126 -1.0843 -1.9156 -2.3123 -0.6510 -4.6649 -2.7831 -2.0169 -2.7160 -1.5937 1.6194 3.8128 -1.5229 0.3747 3.3138 0.2070 -0.2112 4.8906 0.8578 0.4269 -1.5948 2.4554 1.6711 -2.9229 -3.7114 -2.7974 -4.8416 1.2958 -1.4578 -0.0498 -1.4013 -0.0403 -2.5037 1.7989 1.6070 -1.7061 -2.9269 -1.8112 -4.0384 -0.7279 2.0348 4.9118 0.1558 1.1401 5.4386 -0.5866 -0.5766 3.8689 -0.5242 -2.2337 3.3731
-5.6611 -1.3464 -4.5172 -4.1429 -0.4420 -6.0567 1.9502 -2.9658 -0.8790 2.4171 0.6485 0.3792 3.5012 -1.6373 4.1617 1.7955 -3.4363 4.4534 2.2502 2.8043 -4.0975 2.6144 3.2661 -2.7006 1.3357 1.5956 -4.0578 3.2008 2.1252 -1.8951 1.9000 0.4838 -3.1920 1.3159 -3.2819 1.4092 -0.6179 0.4991 -0.6981 2.4814 -2.7234 2.1197 0.5972 -1.3969 0.1775 -1.7327 3.2160 3.3386 -0.5295 3.3923 2.5531 -1.9115 2.0842 4.0401 0.3995 2.4226 2.5203 -1.7361 1.0209 -2.8815 -2.4660 -0.9055 -1.6037 -2.6004 0.7299 -3.8701 -3.3977 -1.2257 -2.6718 -1.0886 -0.2182 4.7670 -0.1716 -1.1985 4.7104 1.2020 0.1005 3.2229 0.6059 -0.3832 -0.8476 2.2866 1.0053 -1.8964 -4.4497 -0.7570 -4.8277 1.3388 -2.5537 0.1003 -1.6467 0.1559 -1.7174 1.8591 0.4587 -0.7001 -3.4625 -0.4357 -3.7589 -0.9115 1.0190 4.0151 0.2158 1.1795 3.2654 1.0108 -1.0515 3.8915 2.2483 -2.2482 3.7442
-4.0015 -3.1291 -6.5756 -3.3845 -1.0570 -7.4800 1.6996 -2.5178 -0.5017 0.7702 2.1149 -0.7536 2.1760 -2.4761 4.5869 -0.2383 -3.1419 4.6181 3.2649 1.4348 -4.9080 2.6518 0.1282 -4.4426 3.2300 2.4736 -3.8043 1.2555 0.3393 -3.8907 1.8144 2.6669 -3.2987 1.8504 -1.6023 1.7094 -1.2986 -0.1180 -1.3922 0.7961 -2.3452 2.4286 0.6537 -0.4983 -0.0126 0.0737 4.0621 6.4780 1.3811 3.5441 6.8218 -0.7888 3.2982 5.7878 1.7346 2.3068 6.4359 -1.7144 -1.9395 -3.0908 -2.5252 0.3076 -3.5035 -2.1789 -2.3594 -4.2825 -3.0684 -0.1534 -4.7693 -1.3449 1.1117 4.6055 -0.9861 -0.1179 4.2026 1.1832 0.1236 5.2323 0.2178 -0.1572 -1.3480 1.2544 1.3950 -2.8960 -3.4415 -1.8708 -6.4612 1.4026 -1.6178 0.2762 -1.8572 -0.5444 -2.7040 0.7639 1.2321 -1.6116 -2.8767 -1.4284 -5.1542 -0.4216 1.9511 5.3619 0.8155 1.4681 5.6707 0.3275 -0.6316 4.5211 0.8097 -2.2521 4.1443
-0.9579 -3.3334 -7.3459 -3.1571 -3.8958 -6.7603 -0.0462 -2.0323 -0.0084 -0.6278 2.4025 -0.0046 0.5451 -2.9415 4.6670 -1.7937 -2.0762 4.8587 3.7875 1.7922 -2.0130 2.9186 0.5776 -2.2761 3.1776 2.6714 -0.9393 1.4896 0.9752 -2.5949 1.7628 3.0653 -1.3135 -1.6889 -1.6911 1.7350 -1.9984 0.6994 -2.2853 -0.7982 -2.5412 2.5477 -1.4582 -0.1940 -0.0860 2.9141 3.7435 4.6782 3.7613 2.6222 5.0258 1.6390 3.5327 4.3130 3.2747 1.3715 4.9664 -1.4125 0.0035 -4.6280 -2.7054 -1.4931 -3.2251 -1.4286 -0.8831 -5.6404 -2.6945 -2.4661 -4.3033 -0.2946 1.9365 3.8700 -0.7854 0.6877 3.8278 1.3441 -0.2280 4.4926 -0.9021 0.3805 -1.2890 0.9742 1.8835 -1.5881 -2.0838 -3.1816 -6.5585 -0.9473 -1.3504 0.4682 -2.0591 -0.3211 -3.3669 -0.1974 1.6579 -0.8851 -2.0889 -2.1663 -5.4669 1.0915 2.1814 4.2524 1.8935 1.1231 4.5624 0.0636 -0.4401 4.1410 -0.5115 -2.0723 4.1724
-5.4755 -0.7897 -1.5961 -4.7135 -0.5805 -3.8011 1.2765 -2.8414 -1.0206 4.0177 0.9350 -0.8897 1.7118 -3.2172 4.1637 -0.6421 -3.7908 3.5457 2.4642 2.9232 -5.0649 3.5322 3.2169 -4.0306 1.4089 1.9938 -4.4997 4.1351 1.9284 -3.5064 2.0240 0.7294 -3.9258 2.2965 -2.8829 1.1583 0.8079 0.9915 -0.7616 1.0815 -3.5163 1.7034 2.1960 -0.9008 -0.1368 -2.4031 2.9946 3.6145 -3.3852 1.9393 3.4846 -1.0924 2.7036 3.5697 -2.9821 0.6676 3.3313 -1.0675 1.1194 -2.4284 -1.3579 -0.1787 -0.4043 -2.2881 0.7674 -2.8699 -2.6747 -0.5660 -0.8784 0.7814 0.9839 3.3689 1.1785 -0.2960 3.2714 -1.1067 -1.0465 3.1897 1.8304 -0.0268 -1.2288 3.0980 1.0512 -3.0051 -4.4834 -0.5114 -2.5180 1.8479 -2.2343 -0.1208 -0.5694 0.6006 -1.1663 3.0925 0.6929 -1.6656 -3.1192 -0.1131 -2.0653 -0.6367 1.3269 3.4075 -1.5619 0.3325 3.3000 0.2010 -1.3593 3.2048 0.5773 -3.0463 3.2706
-4.1546 -2.4903 -5.0362 -5.3049 -1.8456 -3.1005 1.5601 -2.4446 -0.6964 3.5075 1.6091 -1.4920 1.3855 -2.6048 4.3507 -0.9849 -3.1789 3.7735 3.0339 1.2999 -6.3267 3.8112 2.1608 -5.3504 1.8997 0.5793 -5.6246 4.3012 1.3360 -4.1755 2.4106 -0.2210 -4.4406 1.7397 -1.5292 1.5220 0.3983 1.1329 -2.0023 0.5614 -2.3142 1.9426 1.7301 -0.1475 -0.4103 -1.5288 3.5877 6.4791 -0.9553 2.6861 7.4558 -1.6676 3.1896 5.2040 -0.5441 1.4629 7.0817 -1.1345 0.3681 -3.8500 -1.6233 -0.2479 -1.5579 -2.2044 -0.3178 -4.2932 -2.7605 -1.0156 -2.0355 -1.3951 1.4057 3.4067 -0.9801 0.1853 3.0313 -0.2176 -0.3017 5.2648 1.5772 0.1977 -1.8062 3.2017 0.6205 -3.5617 -4.2210 -1.8243 -3.8267 1.6501 -1.4548 0.0228 -0.8210 0.3905 -2.4302 2.8535 0.8877 -2.2456 -3.0440 -1.0402 -3.3508 -1.2345 1.8601 4.7829 -0.6701 1.0198 5.6963 -0.3427 -0.6949 3.9840 0.1673 -2.3062 3.6152
-5.1983 -0.0772 -3.5151 -4.7383 -2.1246 -2.4769 1.9727 -2.6924 -0.7905 3.9299 1.3775 -0.7986 1.4715 -2.9465 4.4015 -0.4982 -4.1053 3.3776 2.3406 2.8555 -5.1666 3.3556 3.3335 -4.1469 1.3550 1.8921 -4.5338 4.0535 2.1576 -3.4916 2.0736 0.7371 -3.8606 2.4787 -2.3846 1.5435 0.6955 1.0813 -0.8115 1.4144 -3.3515 1.8732 2.2597 -0.5517 0.0626 -2.1318 3.1470 3.6816 -1.1509 2.9488 4.7278 -2.3939 2.1563 2.8135 -0.4899 1.7826 4.8152 -0.8242 -0.8415 -1.4908 -1.6347 1.4350 -1.5721 -2.0016 -1.3165 -1.9305 -2.9193 0.9254 -2.0248 -1.9731 -0.2105 1.9738 -1.3021 -1.3710 2.0500 -0.0366 -0.5711 3.9414 1.8667 0.1697 -1.1266 3.0841 1.2314 -2.9440 -4.3920 -0.8944 -2.7447 2.1894 -1.9261 0.1421 -0.6146 0.5899 -1.3317 3.0611 0.9874 -1.5789 -3.0893 -0.3965 -2.2128 -1.6911 0.8801 2.8996 -0.7495 0.7013 3.8693 -0.2917 -1.5593 3.0662 0.5191 -3.0688 3.3101
-3.1924 -4.2965 -5.0060 -4.9368 -3.3485 -3.7607 1.5566 -1.7965 -0.5745 2.4156 2.5406 -1.9049 -1.7880 -2.1000 3.3256 -1.9165 -0.2857 1.6097 4.8083 0.0827 -5.3702 3.7104 -0.7779 -4.7758 5.0600 1.3057 -4.5106 2.4474 0.0254 -4.5307 3.7781 2.0910 -4.3166 1.2080 -0.4962 1.4231 -0.2922 1.0813 -2.6314 0.2961 -1.5126 1.9825 1.0941 0.4766 -0.7274 -0.1178 2.8061 8.2138 -0.6375 1.5051 8.5788 0.0790 3.1071 6.9200 -0.9027 0.5957 7.6255 -1.1017 -0.5693 -4.3477 -2.1048 -0.5461 -2.1398 -1.8884 -1.5926 -4.7271 -2.9376 -1.6681 -2.5382 -0.0186 2.4551 4.4624 -0.2923 1.5538 3.5066 -0.9563 -0.0755 5.1579 1.0566 0.5644 -2.1692 2.7439 1.2311 -3.7809 -3.7026 -3.3109 -4.1822 1.2871 -0.7160 -0.0618 -1.2036 -0.0359 -2.9992 2.1296 1.5528 -2.5816 -2.8386 -2.1623 -3.7861 -0.2134 2.1344 5.8713 -0.6814 0.9001 6.2138 -0.7695 0.2356 3.8622 -1.1778 -0.9542 2.6694
-5.2271 0.1022 -3.3224 -4.7982 -1.9641 -2.3066 1.8839 -2.6925 -0.7509 3.9541 1.3537 -0.6878 1.6537 -2.7550 4.4175 -0.2462 -4.1530 3.5753 2.3322 2.9527 -4.9961 3.3724 3.3888 -3.9829 1.3446 1.9857 -4.3719 4.0629 2.1877 -3.3663 2.0607 0.8032 -3.7458 2.6135 -2.4635 1.5327 0.7214 1.0913 -0.6770 1.5723 -3.4244 1.9435 2.2679 -0.5824 0.1424 -2.3509 2.9771 3.1392 -1.3299 2.9599 4.1654 -2.5752 1.8786 2.4000 -0.5920 1.8543 4.3597 -0.8138 -0.7769 -1.4675 -1.6085 1.5063 -1.3945 -2.0124 -1.2206 -1.8812 -2.9120 1.0308 -1.8283 -2.0411 -0.5450 1.8335 -1.2898 -1.6437 2.0088 -0.0139 -0.5509 3.7401 1.8772 0.1742 -1.0244 3.0893 1.2600 -2.8294 -4.4283 -0.7407 -2.5726 2.1960 -1.9585 0.1806 -0.5916 0.6410 -1.2240 3.0752 0.9891 -1.4691 -3.1033 -0.2801 -2.0658 -1.7923 0.6647 2.6076 -0.8099 0.6579 3.5526 -0.2320 -1.6473 2.9935 0.6911 -3.0605 3.3720
-4.1796 -4.4885 -4.0750 -2.8279 -4.3241 -5.9828 1.2511 -1.2117 -0.4955 1.4500 3.1018 -2.2373 -0.0495 -2.2299 2.8235 -2.2984 -1.2220 3.2194 4.3633 0.5907 -5.3715 3.1908 -0.2684 -4.9375 4.5589 1.7687 -4.4370 1.9317 0.5606 -4.7723 3.2794 2.5703 -4.3098 0.7459 0.2589 1.3281 -0.8770 1.0759 -2.9211 -0.6463 -0.0239 1.7264 0.4963 0.9445 -0.9271 0.5260 2.7010 8.5377 0.3555 3.5575 7.3832 0.4422 1.3684 8.3965 0.0926 3.0200 6.1796 -1.8379 -1.2145 -2.4902 -1.7158 -0.3711 -4.7592 -2.3555 -2.3815 -2.9153 -2.3216 -1.6099 -5.2169 0.1198 -0.6804 6.9269 -0.1010 -1.2268 5.7215 -0.2904 0.9600 4.7052 0.5226 0.8758 -2.3697 2.1952 1.6980 -3.9136 -3.2201 -3.8453 -4.8339 0.8467 -0.1159 -0.1219 -1.4622 -0.1874 -3.4503 1.4083 2.0198 -2.8223 -2.6033 -2.5844 -4.3328 0.1805 0.7669 7.0923 -0.0013 1.5717 6.0057 -0.3086 -0.3777 4.5689 -0.8602 -1.0472 3.0778
-4.2999 -1.3945 -6.7405 -3.3195 0.7287 -6.8417 1.6952 -3.1221 -0.4847 0.0955 1.4307 0.0802 3.8696 -0.9534 4.1202 2.3013 -2.7655 4.8405 2.5362 1.3243 -4.2109 1.8633 2.3968 -3.3767 1.9934 -0.0462 -3.8566 2.0113 2.1016 -1.8966 2.1302 -0.3156 -2.3705 1.4614 -3.0462 1.8945 -1.5620 -0.7832 -0.7781 2.6628 -2.3171 2.3449 0.3881 -1.4619 0.4902 -1.4475 3.7024 4.4836 -0.0577 4.0934 4.5905 -1.7694 2.4108 4.3033 0.9085 3.1668 4.4844 -2.2052 0.5884 -2.7740 -2.4462 -1.8236 -2.8583 -2.6625 0.7091 -4.0324 -2.9349 -1.6951 -4.2203 -1.0601 -0.0194 4.0031 -0.0899 -0.9440 3.9175 1.6131 0.7438 4.1529 -0.0489 -0.8336 -0.7321 1.5410 0.7649 -1.6035 -3.5653 -0.3677 -6.1765 1.2216 -2.5599 0.4970 -2.0723 -0.7284 -2.1728 0.5257 0.5669 -0.6828 -3.0412 -0.4772 -4.7833 -0.7325 1.3893 4.1967 0.5766 1.7615 4.2746 1.3009 -0.5523 3.9822 2.6189 -1.6725 3.9359
-2.5987 -4.5451 -5.8994 -4.5670 -3.9453 -4.7768 1.1275 -1.5702 -0.4331 1.7070 2.7063 -1.8550 -0.3244 -2.2518 3.5729 -2.6509 -1.3460 3.3798 4.6578 0.3668 -5.0565 3.5597 -0.5667 -4.5844 4.7768 1.5824 -4.1583 2.2458 0.1667 -4.3972 3.4404 2.2826 -4.0171 0.5355 -0.2041 1.4432 -0.7385 0.9924 -2.9225 -0.8703 -0.5430 1.7411 0.3714 0.5988 -0.7906 1.0214 3.0291 8.1812 1.7401 1.7731 8.2225 0.0621 3.2201 7.2609 1.4594 0.8097 7.3287 -1.1614 -0.6049 -4.8219 -2.3252 -0.9094 -2.7166 -1.7530 -1.6964 -5.3415 -2.9446 -2.1034 -3.2650 -1.2985 2.3766 5.2806 -1.5726 1.4210 4.3781 0.1148 -0.0250 5.3225 0.5552 0.6186 -2.2240 2.4410 1.3386 -3.5664 -3.3200 -3.7027 -5.0745 0.7052 -0.4950 -0.0205 -1.4410 -0.2090 -3.4508 1.5999 1.6757 -2.5194 -2.6745 -2.4744 -4.5299 -0.2592 2.1822 6.2857 0.4308 1.0061 6.3102 -0.8378 0.1757 4.3944 -1.2140 -1.1303 3.3197
-4.2205 -4.4347 -3.4195 -2.9058 -4.6436 -5.3462 1.2459 -0.8873 -0.3444 1.6321 3.1153 -2.8604 -0.4656 -1.7630 2.3433 -2.5509 -0.5137 2.9100 4.8619 0.2254 -5.0592 3.8210 -0.5914 -4.3185 4.7851 1.6845 -4.6550 2.4307 -0.0198 -4.5210 3.3854 2.2274 -4.8699 0.6897 0.8406 1.2197 -0.6885 1.0826 -3.1490 -0.7333 0.6512 1.5652 0.6668 1.2214 -1.1334 0.0928 2.0976 8.8646 -0.8796 2.8894 8.1410 0.6807 1.0480 8.2667 -1.2025 2.5643 6.8783 -1.8058 -1.0333 -2.3936 -1.5265 -0.6137 -4.7653 -2.3928 -2.2170 -2.6402 -2.1991 -1.8750 -5.0360 0.9624 -0.4572 6.2274 0.5974 -0.8096 4.9835 -0.9601 1.0215 4.8641 0.6948 0.9156 -2.5484 2.4081 1.3948 -4.1993 -3.2592 -3.9603 -4.2925 0.8806 0.2693 -0.1590 -1.3140 -0.2218 -3.4952 1.6189 1.9300 -3.1926 -2.5895 -2.6566 -4.0116 0.3421 0.6825 6.8941 -0.5852 1.4184 6.2182 -0.4142 -0.0581 4.2748 -1.1032 -0.5234 2.7597
-4.5375 -4.2271 -4.2330 -2.8682 -4.5032 -5.8563 1.3050 -0.9024 -0.2320 1.6855 2.9029 -2.3580 0.6221 -1.8084 3.0696 -1.8702 -1.9788 3.2837 4.8182 0.2354 -4.7966 3.7579 -0.6401 -4.1569 4.7222 1.6548 -4.2738 2.3697 -0.0547 -4.3380 3.3315 2.2099 -4.5130 0.2752 0.6160 1.3152 -0.7848 1.0588 -3.1975 -0.8766 -0.2183 1.7145 0.2740 1.0278 -1.0200 0.5496 2.7647 8.5171 1.7108 1.9596 8.2024 -0.5621 2.6625 7.7704 1.6776 1.1196 7.1548 -2.0643 -1.0437 -2.6656 -1.5028 -0.5254 -4.9663 -2.6562 -2.1938 -3.0351 -2.1803 -1.7448 -5.3734 -1.8128 1.6365 5.8040 -1.8432 0.8022 4.7523 0.4245 0.0972 5.1821 0.4973 0.8005 -2.4312 2.3306 1.3380 -3.9327 -3.3880 -3.8119 -4.8791 0.6693 0.1307 -0.0508 -1.4243 -0.2005 -3.6632 1.5544 1.7943 -2.8773 -2.7088 -2.5588 -4.4410 -0.6158 1.7540 6.6300 0.4805 1.0023 6.3262 -0.6828 0.0047 4.4251 -0.6771 -1.1604 3.1435
-4.4889 -3.9678 -4.3149 -2.9484 -4.0188 -6.0807 1.5437 -1.1378 -0.1007 2.0953 2.7071 -2.3138 0.1634 -2.0505 2.9172 -2.1178 -1.1026 3.2795 2.9184 0.3062 -6.6161 2.9872 1.7585 -6.1845 1.9864 -0.4984 -5.7302 3.3136 1.8789 -4.7091 2.3337 -0.3315 -4.2628 0.9769 0.4938 1.5602 -0.5943 1.0779 -2.7832 -0.4199 0.2321 1.9589 0.7429 0.9409 -0.7662 0.4636 2.6947 8.8176 0.2739 3.5715 7.6817 0.4491 1.3627 8.6463 0.0723 3.0504 6.4600 -1.8117 -1.1053 -2.4867 -1.5057 -0.1908 -4.7126 -2.4469 -2.1820 -2.9835 -2.2254 -1.3340 -5.2500 0.2350 -0.6633 7.1179 0.0257 -1.1841 5.8980 -0.1927 1.0193 4.9389 0.7518 0.7043 -2.1916 2.3924 1.0791 -3.9318 -3.3845 -3.4704 -4.9804 1.1087 -0.0192 0.1525 -1.2845 -0.0927 -3.3885 1.8220 1.6026 -2.7825 -2.6530 -2.3013 -4.4176 0.2420 0.7803 7.3242 0.0507 1.6049 6.2551 -0.1977 -0.3136 4.7639 -0.6771 -0.9012 3.2156
-4.2666 -2.6926 -4.4650 -5.4461 -1.7365 -2.6809 2.6314 -1.6369 -0.4903 3.3060 2.1339 -1.8174 2.3570 -1.3872 4.5406 0.6632 -3.1601 4.0342 4.0512 -0.7681 -5.7656 2.7331 -1.1148 -5.0995 4.9376 0.0429 -4.8405 2.0416 0.1242 -4.5624 4.2067 1.2715 -4.3371 2.2573 -0.5432 1.6235 0.2078 1.4715 -2.0999 1.5638 -1.7459 2.1209 1.6647 0.4746 -0.4335 -3.1732 3.0469 5.6168 -1.8887 3.2643 6.2481 -3.3445 1.9912 4.8051 -0.8680 2.4237 6.0068 -1.3047 0.3733 -3.7798 -1.7806 0.1406 -1.4141 -2.3621 -0.3946 -4.0980 -2.9084 -0.7118 -1.7536 -2.4300 -0.0919 3.6701 -1.4134 -0.9302 3.4144 0.0682 0.3514 4.8273 1.4340 0.6114 -1.8554 2.9540 0.8817 -3.7278 -4.3539 -1.8294 -3.3886 2.2045 -0.6650 0.1247 -0.9937 0.6403 -2.3852 2.6463 1.3062 -2.4460 -3.1910 -0.9599 -3.0460 -2.2481 1.0643 4.5384 -1.0298 1.2795 5.1127 -0.1147 -0.6999 4.0080 1.1890 -1.8253 3.7951
-4.8264 -1.5912 -4.0385 -5.5200 -0.7877 -1.9503 2.5159 -2.1780 -0.5773 3.8433 1.3176 -1.9240 2.6612 -2.0025 4.3852 0.5634 -3.3156 4.0539 2.5741 0.5273 -6.6412 3.5599 1.4278 -5.9230 1.4669 0.0619 -5.7150 4.0833 0.7680 -4.6634 2.0219 -0.5568 -4.4451 2.5426 -1.1070 1.5724 0.6301 1.3769 -1.9395 1.5380 -2.0459 2.1026 1.9856 0.0764 -0.4009 -3.2685 2.6569 5.1193 -3.1994 2.4186 3.6929 -2.4387 2.0015 5.9464 -2.3197 1.5295 3.2014 -1.2451 0.7401 -3.4871 -1.4865 0.3739 -1.1023 -2.4580 0.2074 -3.7220 -2.7841 -0.2266 -1.3554 -0.5485 0.3422 6.3172 0.3490 -0.5287 5.8309 -0.4554 -0.1807 3.5769 1.6678 0.2813 -1.7945 2.9780 0.3446 -3.8329 -4.5893 -0.9159 -2.8559 2.3398 -1.1625 0.0876 -0.7312 0.8059 -2.1290 2.9458 0.6981 -2.4947 -3.2530 -0.2987 -2.6147 -1.4672 1.0434 5.4283 -1.4118 0.8036 4.0863 0.4015 -0.7960 4.4104 1.3350 -2.1091 3.7951
-4.8372 -2.1882 -1.7482 -5.0652 -0.5063 -3.3680 2.1690 -2.1771 -0.7282 3.6647 2.1641 -0.8262 1.9287 -2.0522 4.4218 0.3418 -3.8738 3.7581 4.0000 0.9913 -5.5045 2.9538 0.1340 -4.8186 4.8341 1.7352 -4.4805 2.0977 0.9572 -3.8748 3.9409 2.5718 -3.5863 2.7594 -1.7553 1.5688 0.5571 1.4620 -0.7672 1.8218 -2.8186 1.9721 2.3098 0.0034 0.0611 -3.4413 2.5199 3.2095 -2.3964 2.8056 4.1698 -3.4217 1.3630 2.5278 -1.3965 1.9274 4.3572 -0.8029 -0.6192 -1.3114 -1.8372 1.5653 -1.3952 -1.9389 -1.2154 -1.7123 -3.0845 0.9234 -1.7793 -2.3331 -0.8787 2.0158 -1.3297 -1.7536 2.1873 -0.2663 -0.2971 3.7932 1.7987 0.6628 -1.1176 2.9245 1.7407 -2.9757 -4.3977 -1.0428 -2.3839 2.3626 -1.3689 0.1732 -0.7288 0.8294 -1.1861 2.8928 1.5947 -1.5976 -3.1200 -0.4095 -1.9590 -2.3515 0.3909 2.7315 -1.3484 0.6722 3.6116 -0.2509 -1.4504 3.1013 0.9904 -2.6072 3.4606
-3.7970 -3.5497 -6.3282 -5.4377 -2.0124 -5.6647 -0.2959 -2.3299 -0.2034 2.4328 1.2704 -1.2554 1.9294 1.0505 1.9740 2.7502 -0.4525 3.7894 3.9650 -0.3974 -5.6205 2.5186 -0.7837 -5.3814 4.4153 0.6690 -4.6417 2.2845 -1.1830 -3.9358 4.1544 0.2425 -3.2100 -0.4712 -0.7834 1.6271 -0.3037 0.7102 -2.7534 0.7111 -1.1426 2.4352 0.2213 -0.0872 -0.5293 -1.5093 2.3785 8.6279 -1.3998 0.9350 8.6444 -1.0722 3.0700 7.5626 -0.8525 0.2914 7.5997 -2.6338 -0.1832 -3.0174 -0.9670 -0.6870 -4.7037 -3.5559 -0.9177 -3.6669 -1.9631 -1.4638 -5.4175 -0.0068 3.1209 5.2493 0.5595 2.4790 4.2147 0.2582 0.3491 5.3016 0.6116 -0.1679 -1.9194 2.7698 -0.1464 -3.0463 -4.1933 -2.4056 -5.6605 -0.1583 -1.1845 0.2120 -1.2786 -0.0948 -3.5367 2.0214 0.3883 -2.0100 -3.2010 -1.5892 -4.9069 -0.4812 2.3856 6.4161 -0.3674 1.0271 6.4353 0.7095 1.0410 4.2394 1.6331 0.1531 3.0804
-5.2784 -0.7294 -0.7830 -4.9186 -0.2200 -3.0440 1.9514 -2.4443 -0.8556 4.0945 1.5664 -1.0572 2.0024 -2.5034 4.3201 -0.0043 -3.7938 3.5750 3.3443 1.0038 -5.8572 2.2880 0.2493 -5.0734 4.5008 1.4019 -4.9619 1.8354 1.0317 -3.8557 4.0016 2.2108 -3.7820 2.7938 -2.2039 1.3882 0.9131 1.4048 -0.6279 1.7133 -3.0945 1.8481 2.4957 -0.3402 -0.0362 -3.6823 2.1762 3.0013 -4.3030 0.8718 2.9036 -2.3464 2.2792 3.0979 -3.5415 -0.2342 2.9284 -0.9973 -0.2078 -0.3676 -1.2502 1.7133 -1.8201 -2.2472 -0.6217 -0.6377 -2.6153 1.2881 -2.0899 -0.0472 1.1780 3.1734 0.7120 0.0696 3.1761 -1.2452 -1.3281 3.0621 1.9631 0.4343 -1.1337 2.9764 1.4730 -3.0761 -4.4834 -0.2681 -1.8153 2.3479 -1.7081 0.0415 -0.4659 0.9863 -1.0028 3.1201 1.2161 -1.7230 -3.0845 0.1568 -1.5316 -1.5026 1.0887 3.1058 -2.0887 -0.1397 3.0346 0.0945 -1.2375 3.1389 0.9539 -2.7252 3.3371
-4.0308 -4.3468 -4.7725 -5.5778 -2.8140 -3.9056 0.4440 -0.7397 0.0565 2.6570 1.9481 -2.7271 1.1776 3.6942 2.9314 3.1020 2.2116 3.5393 4.6856 -2.3716 -3.7874 3.2535 -2.5653 -3.3280 5.1749 -0.9746 -3.4604 2.3411 -1.4867 -3.8806 4.2497 0.0649 -4.0605 0.2425 1.4546 1.0026 -0.1801 0.8342 -3.6573 1.5876 1.5424 1.6044 0.4806 1.1224 -1.3353 -2.6511 0.1721 7.7975 -2.9054 1.5604 7.4744 -1.6520 -0.4852 7.1861 -2.1531 2.1823 6.5513 -1.2763 -1.0165 -4.9600 -2.3000 -0.2297 -2.9080 -2.2465 -1.9349 -5.1255 -3.3232 -1.2478 -3.0602 0.2598 -0.5268 5.5018 1.0000 0.0886 4.5654 -0.2525 2.1320 4.8477 0.7907 0.4274 -2.5649 2.8909 -0.1697 -3.6210 -4.3565 -3.1045 -4.2617 0.4104 0.4736 -0.1210 -1.2912 -0.1467 -3.7949 2.1931 0.8342 -2.9702 -3.3001 -2.0609 -4.1316 -0.8242 0.1756 6.1811 -1.0748 1.4777 5.8629 0.7345 1.4677 4.2212 1.7202 2.3573 3.1100
-3.5287 -5.1760 -4.8401 -1.3136 -5.3181 -5.5881 -0.1651 0.0038 0.6903 0.3761 3.1384 -2.1009 -2.8907 2.2834 3.9660 -1.2377 4.1113 3.5220 4.5270 0.3592 -1.9626 3.3083 -0.5360 -2.0896 4.1597 1.7405 -1.4565 2.2061 0.1278 -2.8939 3.0665 2.3527 -2.3075 -2.2095 1.1440 1.1907 -1.1841 0.7883 -3.3617 -1.8311 2.4969 1.6441 -1.2440 1.2149 -0.9771 2.5841 -1.7646 6.1139 1.2352 -1.9758 6.5946 2.8320 -0.7767 5.2383 0.2336 -1.1991 6.1487 -2.3492 -1.4193 -3.0254 -0.8891 -1.1117 -4.9365 -2.5936 -2.6959 -3.3737 -1.1922 -2.4727 -5.3444 2.0108 1.1598 3.8008 1.0112 1.9356 3.3512 -0.5957 0.7196 4.6798 -0.3819 0.8480 -2.0761 1.9383 1.4498 -2.3620 -2.2720 -4.6327 -5.0267 -1.0811 0.7182 0.2979 -1.4291 -0.6096 -3.8108 0.6555 1.9444 -2.1990 -1.9897 -3.2397 -4.5786 1.7557 0.0805 4.7481 0.4810 -0.1328 5.1825 -0.3427 1.7107 3.8067 -1.6605 2.7329 3.3355
-3.0739 -5.1543 -5.1027 -5.0230 -3.9046 -4.7448 0.8554 -0.6041 0.1518 1.9250 2.3306 -2.5770 -1.1875 3.6359 2.7454 1.2788 3.9268 3.0762 4.8183 -1.5449 -3.7079 3.3745 -2.0018 -3.6132 5.0207 -0.2108 -3.0175 2.4086 -0.9295 -4.0846 4.0661 0.8200 -3.5815 -0.5205 1.1695 0.9942 -0.5237 0.7005 -3.6762 0.4485 2.2110 1.3911 -0.0537 0.9559 -1.3171 -0.6652 -0.5117 8.5536 -1.3930 0.7379 8.6191 0.0584 -0.8057 7.4610 -1.3622 1.5883 7.5795 -0.9780 -1.3835 -5.0004 -2.5406 -0.7010 -3.2759 -1.7096 -2.4797 -5.2696 -3.3183 -1.8993 -3.5449 0.8970 -0.1873 5.1349 0.9190 0.6583 4.0920 -0.5701 2.1765 5.2252 0.4589 0.4137 -2.5553 2.7097 0.3379 -3.4465 -3.7210 -3.9760 -4.7817 0.1860 0.3963 -0.0812 -1.3982 -0.4712 -3.9499 1.7499 1.1462 -2.8625 -2.9193 -2.7486 -4.5096 0.1078 0.1106 6.3246 -0.6001 1.2745 6.3747 0.1361 1.8725 4.1210 0.1392 3.0510 2.8559
-4.4686 -4.6059 -4.5682 -2.3093 -5.4637 -4.8655 -0.3999 0.1704 0.6004 1.4338 2.6285 -2.3571 -1.8635 3.9123 3.3784 0.4732 4.6308 2.8276 4.4437 -1.1666 -1.3599 3.0029 -1.6370 -1.4138 4.5229 0.3420 -1.2294 2.2246 -0.9142 -2.4967 3.7414 1.0197 -2.3371 -1.7474 2.1406 0.8153 -0.6871 0.6878 -3.5638 -0.8411 3.2663 1.1217 -0.8237 1.4748 -1.2743 1.0101 -1.8142 6.4953 -0.1557 -1.1499 7.0397 1.6113 -1.3227 5.3994 -0.6477 -0.0565 6.4334 -0.6190 -1.5874 -4.6171 -2.5709 -0.9192 -3.3427 -1.1583 -2.7944 -4.8652 -3.1453 -2.2288 -3.5917 1.7577 0.4351 3.5625 1.2824 1.5442 2.9738 -0.5318 1.6731 4.5609 -0.0227 0.7134 -2.2031 2.3841 0.5200 -2.3562 -3.0941 -4.4560 -4.5952 -0.9049 1.1506 0.0629 -1.3455 -0.6213 -3.8115 1.3191 1.4039 -2.3235 -2.4677 -3.1283 -4.3279 1.1002 -0.1258 4.7385 -0.0131 0.4856 5.2350 0.0802 2.1730 3.4733 -0.5704 3.6195 2.7817
-2.1936 -5.3115 -2.7303 -4.2255 -4.1736 -2.4623 0.7965 0.6171 0.4075 2.1302 2.9790 -3.2004 -3.4787 2.1998 2.5866 -1.8324 4.0401 3.0078 5.3624 -0.6663 -3.3231 4.0836 -1.1195 -2.6458 5.3948 0.8433 -3.4575 2.8590 -0.5792 -3.3587 4.1687 1.3353 -4.1999 -0.1000 2.8164 0.7464 -0.2668 0.9025 -3.4837 -1.5237 2.5006 0.9784 0.3733 1.9976 -1.4166 0.5284 -2.1281 6.5668 -0.8888 -2.3503 6.3715 1.1273 -1.0772 5.9836 -1.5976 -1.5171 5.5918 -0.6054 -1.5161 -4.0713 -2.0056 -0.4914 -2.3766 -1.2192 -2.7018 -3.9038 -2.6466 -1.7781 -2.1691 1.0020 1.0028 4.5236 0.2869 1.8543 3.7725 -1.7136 0.5444 4.0925 0.8239 1.0952 -2.4480 2.9682 0.8544 -3.5507 -2.9397 -4.1490 -2.6823 0.4010 1.6703 -0.0797 -1.0009 -0.3732 -3.2644 2.0201 1.7570 -3.0999 -2.2728 -2.8363 -2.9115 0.3695 -0.1548 5.1444 -0.9608 -0.3752 4.9419 -1.1190 1.6129 3.5340 -2.1051 2.6760 2.5861
-4.9055 -0.9286 -3.1467 -5.0863 -0.6155 -0.8351 1.9221 -1.4950 0.3604 4.0996 1.6247 -2.1753 2.2782 -0.0256 5.0660 1.8980 -2.4889 4.8324 2.8873 0.1737 -6.4508 4.1573 0.6362 -5.7628 1.6898 0.3769 -5.5440 4.3385 -0.0597 -4.4258 1.8999 -0.3391 -4.2246 2.8390 0.0137 2.0216 0.9506 1.6999 -1.7593 2.8444 -1.1898 2.8688 2.4999 0.6746 -0.2112 -4.6219 0.6588 3.2156 -4.0123 1.5370 4.1918 -3.8968 -0.3279 2.6658 -2.7203 1.3784 4.5283 -1.0126 0.6062 -0.6038 -1.1426 1.1405 -2.9635 -2.2499 0.0768 -0.6237 -2.4893 0.6010 -2.9778 -1.7220 -1.6265 2.4784 -0.4358 -1.8037 2.8159 -0.5037 0.1082 4.2905 1.9939 0.6197 -1.5595 3.1494 0.0672 -3.6081 -4.3897 -0.5084 -1.9337 2.3669 -0.3907 0.6520 -0.4240 1.1313 -1.8268 3.1826 0.8579 -2.4669 -3.0181 0.0768 -1.8574 -2.4995 -0.5288 3.0380 -1.9126 0.3136 3.9359 0.2064 -0.8918 3.7359 1.8391 -1.1529 4.2596
-4.7523 -3.8889 -4.5373 -2.8297 -5.1563 -4.1132 -0.5041 0.1692 0.6848 2.0303 2.5135 -2.0177 -1.5784 4.0080 3.4625 0.8868 4.3943 3.2518 4.5798 -1.0607 -3.9043 3.1098 -1.4254 -3.8437 4.7743 0.4062 -3.5761 2.5032 -1.0517 -2.5028 4.1782 0.7290 -2.2191 -1.4289 2.3708 0.8560 -0.2056 0.7409 -3.3949 -0.3532 3.2583 1.3401 -0.3844 1.6035 -1.1397 -0.0273 -2.2168 6.5961 -1.2662 -1.5149 6.8577 0.8680 -1.6958 5.7413 -1.5258 -0.3549 6.2311 -0.4251 -1.6771 -4.0296 -2.4065 -0.4204 -3.4229 -1.1484 -2.7970 -4.2007 -3.1913 -1.6298 -3.6062 1.5747 0.1497 4.1366 1.3210 1.3107 3.5121 -0.8304 1.4822 4.5964 0.3930 0.7419 -2.0012 2.7863 0.3310 -2.1648 -3.4126 -3.9920 -4.2120 -0.7158 1.2532 0.1511 -1.0737 -0.4486 -3.6056 1.8006 1.3050 -2.0686 -2.5856 -2.7709 -3.9841 0.6064 -0.4315 5.0597 -0.5691 0.2210 5.2894 0.0726 2.0019 3.7461 -0.2706 3.5422 3.0316
-4.7847 -3.9229 -4.2275 -2.7874 -5.1355 -4.3707 -0.5085 0.1732 0.6851 2.0445 2.5035 -2.0224 -1.5680 4.0230 3.4548 0.8990 4.3976 3.2445 4.5756 -1.0866 -3.8993 3.1032 -1.4430 -3.8456 4.7766 0.3798 -3.5724 2.4905 -1.0643 -2.5091 4.1803 0.7035 -2.2159 -1.4234 2.3792 0.8519 -0.2057 0.7434 -3.3916 -0.3452 3.2642 1.3346 -0.3697 1.6096 -1.1368 -0.0467 -2.2066 6.5977 -1.2827 -1.4989 6.8570 0.8519 -1.6900 5.7437 -1.5366 -0.3383 6.2293 -0.4893 -1.5808 -4.2936 -2.3493 -0.5034 -3.1725 -1.2091 -2.7025 -4.4735 -3.1243 -1.7183 -3.3539 1.5680 0.1510 4.1380 1.3194 1.3115 3.5105 -0.8326 1.4933 4.5912 0.3979 0.7410 -2.0000 2.7855 0.3152 -2.1664 -3.4043 -3.9979 -4.1975 -0.7115 1.2585 0.1510 -1.0745 -0.4462 -3.6001 1.8074 1.2964 -2.0707 -2.5768 -2.7740 -3.9840 0.5960 -0.4255 5.0600 -0.5771 0.2321 5.2869 0.0737 2.0086 3.7415 -0.2623 3.5502 3.0255
-4.5537 -4.6112 -4.6191 -2.5991 -5.0673 -5.8329 0.7407 -0.4521 0.1397 1.1247 2.8202 -2.6156 -1.8827 3.3116 2.8573 0.4993 3.9816 3.1992 4.6927 -0.5730 -3.4464 3.3440 -1.2489 -3.2896 4.6800 0.8267 -2.8630 2.2309 -0.3887 -3.8550 3.5564 1.6489 -3.4617 -0.8813 0.9908 1.1512 -1.0129 0.8014 -3.5260 -0.0321 2.1072 1.6064 -0.4533 1.0536 -1.1778 1.1739 -1.3642 7.9694 1.7139 -1.8189 6.7053 0.4059 -0.2632 8.0121 1.4654 -1.1253 5.5816 -2.3834 -1.2372 -3.0021 -1.3953 -0.9940 -5.2029 -2.9030 -2.4333 -3.3297 -1.9978 -2.2625 -5.5766 -0.7181 1.6929 6.8303 -0.9747 2.3822 5.7069 0.3813 0.8660 4.4058 0.0620 0.6576 -2.4665 2.3037 0.9459 -3.2940 -3.2929 -4.2681 -5.0700 -0.0985 0.4312 0.0006 -1.5600 -0.5127 -3.9570 1.1925 1.6064 -2.8012 -2.6956 -2.9650 -4.6654 0.1183 0.4973 6.7995 0.6431 0.0818 5.6111 -0.4052 1.9553 4.4481 -0.4892 2.9269 3.0282
-2.6852 -5.4736 -3.6401 -0.9676 -5.1939 -5.2095 0.5743 0.6302 0.5037 0.6324 3.3620 -3.1854 -3.5579 1.4926 3.4986 -1.9053 3.3460 3.8310 4.5980 0.5662 -3.7267 3.5550 -0.1536 -2.8937 4.2616 2.0383 -3.8581 2.1590 0.0710 -3.4417 2.8703 2.2158 -4.4321 -0.6029 2.5927 1.2095 -1.3111 0.9319 -3.0628 -1.8938 2.0184 1.6375 -0.4312 2.0073 -1.0786 2.1517 -1.4615 7.1313 2.2818 -0.0413 7.3805 1.2928 -1.9019 6.1973 1.5286 0.8317 6.6915 -1.7205 -1.4494 -2.3379 -1.2738 -0.9568 -4.6698 -1.8019 -2.7677 -2.5988 -1.4047 -2.3733 -4.9615 -0.4405 -1.4250 4.3913 -1.1856 -0.5512 3.6949 -0.2598 1.3001 4.9352 -0.0690 1.2511 -2.2542 1.9072 1.4865 -3.6355 -1.7549 -4.6914 -4.2977 -0.0862 1.6162 0.1960 -1.4065 -0.5128 -3.4065 0.8374 2.1542 -3.0643 -1.6331 -3.2442 -3.9617 0.4790 -0.9661 5.4274 0.5856 0.3700 5.6770 -1.1090 0.8628 3.9893 -2.2140 2.0188 3.3247
-5.2247 -0.9131 -0.9428 -4.6579 -1.9284 -2.9775 2.0175 -0.9788 0.1894 3.7550 2.1698 -2.6884 2.1297 1.4067 4.5634 2.3674 -1.0364 5.0700 3.9302 -1.8353 -5.4242 2.7550 -1.9153 -4.4686 4.8724 -0.7213 -5.0142 2.0442 -0.5798 -4.3445 4.1229 0.5944 -4.9648 2.6080 0.8438 1.6725 0.6248 1.7980 -2.2505 2.7656 -0.2177 2.6832 2.3316 1.1596 -0.6472 -4.8288 -0.0666 3.8963 -4.3605 1.0287 4.7189 -3.9426 -0.8924 3.3155 -3.0421 1.2294 4.8816 -1.1625 0.6043 -0.9291 -1.3828 0.8083 -3.3346 -2.3035 -0.1058 -0.8500 -2.6417 0.0882 -3.2467 -1.5278 -1.5838 2.8716 -0.2098 -1.3761 3.0275 -0.6272 0.5598 4.4013 1.8243 0.9088 -1.9775 2.9885 0.4879 -4.0714 -4.3646 -1.1063 -2.0070 2.2885 0.2059 0.3475 -0.6590 1.0408 -2.2239 2.9510 1.2678 -2.9268 -3.0687 -0.3722 -2.0565 -2.5058 -0.6934 3.4884 -2.0646 0.3528 4.2428 0.2636 -0.2528 3.8053 1.9343 0.0205 4.1711
-2.3051 -5.2598 -4.2982 -4.2352 -4.2110 -3.4884 -0.1133 0.5209 0.6718 2.0546 2.8951 -2.2110 -2.1101 3.8329 3.5211 0.3442 4.0869 3.9262 4.2070 -0.9976 -4.4008 4.2858 0.5073 -4.5665 2.9006 -1.4094 -3.7501 4.0640 1.2046 -3.2400 2.6693 -0.6676 -2.4461 -1.3851 2.5498 0.7982 -0.2506 0.9379 -3.3992 -0.4558 3.3332 1.6349 -0.2352 1.9212 -1.1776 0.5563 -2.4641 6.5108 1.6616 -1.5394 6.6505 -0.4985 -2.1369 5.7463 1.6224 -0.3497 6.0283 -2.0913 -0.6358 -2.7098 -0.5429 -1.3014 -4.4495 -2.7255 -1.8203 -2.7752 -1.2497 -2.5681 -4.5491 -1.7083 -0.4605 4.2541 -1.7721 0.7544 3.6849 0.3850 1.3427 4.5807 0.4886 1.0593 -2.0808 2.8216 0.7605 -2.6482 -2.9795 -4.1429 -3.8397 -0.5044 1.5437 0.1195 -0.9258 -0.3831 -3.5430 1.8505 1.6853 -2.3052 -2.2833 -2.8269 -3.7268 -0.5612 -0.8447 5.0702 0.4723 0.0321 5.2148 -0.6969 1.7047 3.8690 -0.7539 3.3468 3.3240
-5.3843 -0.2884 -0.8957 -4.8553 -1.6725 -2.7125 1.9571 -0.7693 0.4725 3.8275 1.8186 -2.7798 2.2773 1.7536 4.6965 2.1831 -0.7220 5.0237 3.6863 -2.6233 -4.9040 2.5346 -2.4758 -3.9286 4.7421 -1.5624 -4.6632 1.9628 -1.0710 -3.9537 4.1283 -0.1787 -4.7266 2.7710 1.1656 1.6829 0.6889 1.7260 -2.3861 2.9319 0.1989 2.7820 2.2902 1.2483 -0.6233 -4.6593 -0.7012 3.4669 -3.9713 -1.9148 3.8542 -3.9585 0.4175 3.2182 -2.6337 -1.9147 3.9794 -1.2153 0.8812 -0.9703 -1.3586 0.7305 -3.3849 -2.4137 0.2864 -0.8277 -2.6753 0.1331 -3.2361 -1.7245 1.6370 3.0710 -0.3895 1.6406 3.2197 -0.4087 -0.6717 3.8963 1.8082 0.8191 -1.9144 3.0205 -0.0908 -3.8002 -4.5204 -0.7212 -1.8843 2.2978 0.4085 0.4709 -0.6445 1.0691 -2.2956 2.9818 0.9284 -2.8649 -3.1683 -0.1043 -2.0066 -2.5042 0.4337 3.3435 -1.8574 -0.7044 3.7240 0.2957 0.4548 3.6859 1.9578 0.4354 4.1710
-5.3374 -0.4541 -0.6530 -4.7241 -1.9366 -2.3631 2.1769 -0.4933 0.5637 3.6835 2.1443 -2.7956 1.8929 2.1336 4.7468 2.0747 -0.3287 5.1223 3.8047 -2.4141 -4.6969 2.6674 -2.2976 -3.7008 4.7991 -1.2833 -4.5215 2.0127 -0.9311 -3.7646 4.1012 0.0571 -4.6285 2.5833 1.5641 1.7764 0.5815 1.8479 -2.3045 2.8106 0.6451 2.9042 2.2520 1.5342 -0.5599 -4.3233 -1.7053 2.6758 -3.2811 -2.6444 2.3183 -3.9984 -0.4847 3.1325 -1.9909 -2.3040 2.4746 -1.2380 0.9316 -0.8291 -1.4133 0.6827 -3.2327 -2.3948 0.2712 -0.6422 -2.6876 0.0094 -3.0370 -2.2309 1.2211 3.8087 -0.9426 1.5430 4.0095 -0.2261 -0.6245 3.2386 1.7697 1.0383 -1.8258 3.0126 0.1155 -3.6779 -4.4507 -0.9047 -1.6128 2.3201 0.7245 0.5551 -0.7011 1.1023 -2.1704 2.9115 1.1863 -2.8077 -3.1417 -0.2135 -1.7898 -2.6017 -0.0973 3.3056 -1.6196 -0.9917 2.9984 0.1018 0.5781 3.7466 1.7471 0.7786 4.2364

>  <OB_ATOM_TYPES> (1etsB1)
N.pl3 N.pl3 O.2 O.2 O.2 O.2 C.3 C.3 C.3 C.3 C.3 C.3 C.3 N.3 N.am C.ar C.ar C.ar C.ar C.ar C.ar C.ar C.ar C.ar C.ar C.ar C.3 N.am C.2 C.2 C.ar C.2 C.ar C.ar C.ar C.ar S.O2

>  <ENSEMBLE_RMSD> (1etsB1)
2.165 2.256 2.258 2.291 2.419 2.435 2.542 2.567 2.589 2.610 2.614 2.648 2.665 2.694 2.777 2.784 2.825 2.835 2.877 2.912 2.985 2.987 3.006 3.008 3.044 3.069 3.095 3.198 3.206 3.218 3.245 3.309 3.389 3.571 3.621 3.641 3.641 3.779 3.786 3.791 3.796 3.815 3.848 3.917 4.014 4.116 4.269

$$$$
