
 OpenBabel03071213D

 31 35  0  0  0  0  0  0  0  0999 V2000
    9.2240    6.5130   27.1140 N   0  0  0  0  0
    4.5910    5.1490   24.2020 O   0  0  0  0  0
    2.9910    1.4090   21.1640 O   0  0  0  0  0
    4.5080    1.3770   23.1580 O   0  0  0  0  0
    5.4240    5.1650   20.7410 C   0  0  0  0  0
    6.0400    6.4550   21.2450 C   0  0  0  0  0
    5.5990    7.7970   23.3850 C   0  0  0  0  0
    4.0250    3.4980   21.9110 N   0  0  0  0  0
    7.2850    1.6670   21.1220 S   0  0  0  0  0
    9.2710    0.4420   17.7740 C   0  0  0  0  0
    8.1400    0.0760   17.0030 C   0  0  0  0  0
   11.7210    8.6290   25.6650 C   0  0  0  0  0
    9.0610    0.9520   19.0840 C   0  0  0  0  0
    7.7410    9.1240   22.8480 C   0  0  0  0  0
   11.1090    9.2260   24.5460 C   0  0  0  0  0
    9.0880    9.4590   23.1410 C   0  0  0  0  0
    7.7300    7.5870   24.8810 C   0  0  0  0  0
    5.4160    0.9140   19.4960 C   0  0  0  0  0
   11.0810    7.7380   26.4960 N   0  0  0  0  0
    6.8780    0.2040   17.5050 N   0  0  0  0  0
    5.2120    4.3180   22.0020 C   0  0  0  0  0
    5.5450    6.5380   22.6240 N   0  0  0  0  0
    7.0170    8.2060   23.6710 C   0  0  0  0  0
    9.7720    7.3880   26.2540 C   0  0  0  0  0
    5.0640    5.3650   23.0920 C   0  0  0  0  0
    7.7850    1.0920   19.6120 C   0  0  0  0  0
    5.6160    1.4400   20.7820 C   0  0  0  0  0
    9.7550    8.8810   24.2720 C   0  0  0  0  0
    6.6740    0.7000   18.7800 C   0  0  0  0  0
    9.0680    7.9360   25.1490 C   0  0  0  0  0
    4.2360    1.7790   21.8030 S   0  0  0  0  0
  1 24  1  0  0  0
  2 25  2  0  0  0
  3 31  2  0  0  0
  4 31  2  0  0  0
  5  6  1  0  0  0
  5 21  1  0  0  0
  6 22  1  0  0  0
  7 22  1  0  0  0
  7 23  1  0  0  0
  8 21  1  0  0  0
  8 31  1  0  0  0
  9 26  1  0  0  0
  9 27  1  0  0  0
 10 11  1  0  0  0
 10 13  2  0  0  0
 11 20  2  0  0  0
 12 15  1  0  0  0
 12 19  2  0  0  0
 13 26  1  0  0  0
 14 16  2  0  0  0
 14 23  1  0  0  0
 15 28  2  0  0  0
 16 28  1  0  0  0
 17 23  2  0  0  0
 17 30  1  0  0  0
 18 27  2  0  0  0
 18 29  1  0  0  0
 19 24  1  0  0  0
 20 29  1  0  0  0
 21 25  1  0  0  0
 22 25  1  0  0  0
 24 30  2  0  0  0
 26 29  2  0  0  0
 27 31  1  0  0  0
 28 30  1  0  0  0
M  END
>  <MOLID> (1f0rA1)
1f0rA1

>  <SMILES_CANONICAL> (1f0rA1)
O=C1N(CC[C@@H]1NS(=O)(=O)c1sc2c(c1)nccc2)Cc1ccc2c(c1)c(N)ncc2	

>  <FINGERPRINT> (1f0rA1)
0000000000000011000000001101101000010001100000001001110000000000000000010001000001001001000100001000000110111001000001100000000000000000000111001000000000000000001000000000000000010000000100000000010000000011000000000000000000100010000000000001000000001000000000000000000000000000010000000000000101000001100010011100000000000000001000000010101000000100011000000000000110110000100000000000011000000000100010100000011100000000010000100000000000000001100000001010000000000100010000000000000000000100100000000000010000010000000000000010000000010000000000100000000000100000100001000000100011100000000000000100000000000000001000010111011000000011111000000000010000000000000000000111110000001000100001101000100100100000100000000000100010000000101110100110000000000010001110000000001000000000000000000000000011100100000000000110000000001100100000000000000100000000100000001001000000000001000000000000110000001000010000000000110100001000001001000000011000000000000100010010000000000100000000000000001000000001110000010000011001100000

>  <MACCS166> (1f0rA1)
000000000000000000001000010000011001010000001000011000100111100110100000101111111011110101110111011001011100011100001111110110111110101111010110111101101111011010111000

>  <OB_MW> (1f0rA1)
453.093

>  <OB_logP> (1f0rA1)
4.4969

>  <OB_PSA> (1f0rA1)
154.9

>  <OB_MR> (1f0rA1)
123.833

>  <OB_ATOMIC_CHARGES> (1f0rA1)
-0.1072065324 -0.2732958285 -0.1510953725 -0.1510953725 0.0501729026 0.0957774549 0.1201581927 -0.0694135404 -0.0656504105 0.0211920952 0.0988624037 0.1004277267 0.0096179666 -0.0026090597 0.0207731637 -0.0001281214 0.0002707335 0.0462150971 -0.2259241313 -0.243275012 0.1753676662 -0.2741959829 -0.0022434336 0.1696139311 0.2436821258 0.0484233927 0.1545406252 0.0043192632 0.0891627014 0.0345897224 0.0829656332

>  <MCT_HBD> (1f0rA1)
2

>  <MCT_HBA> (1f0rA1)
8

>  <ENSEMBLE_TOTAL> (1f0rA1)
50

>  <ENSEMBLE_COORDS> (1f0rA1)
0.9310 2.5267 5.2121 -1.6746 0.4021 1.7508 -3.4402 -3.6913 -0.0184 -1.3899 -2.9219 1.1977 -1.7227 0.4326 -1.8139 -1.3281 1.8549 -1.4684 -1.3910 3.1597 0.6692 -2.6149 -1.2915 -0.3549 0.4358 -3.9801 -1.2671 1.3090 -4.6642 -5.1362 -0.0499 -4.2521 -5.6125 4.0480 3.7891 4.0074 1.4942 -4.5769 -3.8083 0.9579 3.9981 0.3768 3.8281 4.1526 2.5924 2.2140 4.2355 0.7949 0.2283 3.1257 2.5420 -1.7517 -3.3854 -2.5789 3.1866 3.2957 4.8350 -1.0442 -3.8389 -4.8844 -1.4783 -0.3696 -0.5443 -1.4051 1.8961 -0.0330 -0.0414 3.4031 1.2523 1.8990 3.0644 4.3636 -1.5604 0.6542 0.5602 0.4091 -4.1231 -2.9879 -1.2324 -3.4504 -1.3373 2.5805 3.9191 2.1675 -0.7620 -3.7929 -3.5476 1.5696 3.3556 3.0773 -2.2042 -2.9269 -0.0063
2.4242 1.3127 4.4258 -1.3789 -0.1467 1.6597 -4.1140 -2.8704 -1.3369 -2.4034 -2.8135 0.4865 -1.4512 1.1475 -1.6826 -1.7693 2.3554 -0.8225 -1.6504 2.8013 1.6421 -2.7920 -0.7347 -0.9365 -1.4306 -2.5831 -3.6416 1.4146 -5.1120 -4.9559 1.5122 -5.8311 -3.6456 4.3546 4.1571 3.4547 0.5095 -4.1193 -4.9915 0.0920 4.5762 1.3503 3.4858 4.9655 2.5746 1.3065 5.1217 1.5420 0.5563 2.6407 2.7712 -0.8943 -4.1344 -1.6018 4.0620 3.0409 4.0369 0.8241 -5.5945 -2.5687 -1.4873 -0.0649 -0.7605 -1.5990 1.8855 0.5241 -0.2807 3.3031 1.9497 2.7920 2.5161 3.8237 -1.4849 0.5121 0.6349 -0.2578 -3.8410 -3.8122 -1.6383 -3.0740 -1.9713 2.2713 4.4349 2.3878 -0.0665 -4.5657 -2.7025 1.8986 3.1633 3.0291 -2.8053 -2.4489 -0.8631
0.6629 3.0447 5.5383 -1.3454 0.3421 1.6926 -2.9121 -3.6384 0.1355 -0.6802 -2.7721 0.8704 -1.5272 0.6280 -1.8566 -1.2363 2.0488 -1.4162 -1.3346 3.1881 0.8089 -2.2356 -1.2563 -0.5050 0.6629 -3.8784 -1.8593 0.6421 -5.3774 -5.5935 -0.8224 -5.1291 -5.7850 3.8748 4.1412 4.4237 1.1318 -4.9868 -4.4048 1.0386 3.9975 0.5905 3.7557 4.3578 2.9673 2.2660 4.2717 1.0670 0.1612 3.3264 2.7720 -1.8177 -3.6591 -2.6711 2.9507 3.7504 5.2382 -1.6438 -4.5877 -4.9357 -1.1736 -0.2444 -0.6607 -1.2554 1.9791 0.0197 -0.0195 3.4795 1.4465 1.6960 3.4746 4.7056 -1.2922 0.6886 0.5212 0.2418 -4.3841 -3.4555 -1.0148 -3.4370 -1.6125 2.5360 4.0906 2.4853 -1.0527 -4.2223 -3.7584 1.4611 3.6209 3.3747 -1.7182 -2.8573 -0.1433
0.8442 2.6359 5.1805 -2.5304 0.7714 1.6325 -3.4759 -2.9282 0.1395 -1.4187 -4.0186 1.0661 -0.8290 -0.0244 -1.4127 -0.7608 1.4871 -1.3555 -1.1927 3.1479 0.4737 -1.3267 -1.5430 0.4130 -2.4696 -3.3399 -2.9358 0.2060 -4.1871 -5.8211 1.3246 -4.4055 -4.8493 4.0274 3.8729 4.1338 -0.9727 -3.8619 -5.2640 1.1764 3.9396 0.3079 3.8971 4.1848 2.6956 2.4019 4.1983 0.7976 0.3112 3.1312 2.4481 -0.2249 -3.8137 -1.6714 3.1168 3.4018 4.9206 1.2684 -4.3094 -3.5544 -1.8738 -0.4224 -0.3781 -1.2646 1.8015 -0.0461 0.1229 3.3706 1.1363 1.8628 3.1469 4.3761 -1.9377 0.7562 0.5634 -1.0554 -3.7535 -3.8365 -1.5185 -3.4946 -1.4709 2.6795 3.9314 2.2009 0.0293 -3.9758 -3.0831 1.6149 3.3895 3.0615 -2.0318 -3.0891 0.1321
0.1676 3.9127 4.9271 -0.2563 0.6150 -1.5273 -3.1285 -3.1703 0.1508 -0.9397 -3.6101 1.2906 -3.2928 0.3854 0.3451 -2.7260 1.7277 0.7651 -0.8425 3.1424 -0.0762 -1.4840 -1.2336 0.5159 0.7527 -2.9440 -1.6347 1.0107 -4.1251 -5.4736 -0.4365 -4.5029 -5.5523 3.6775 3.4309 4.4716 1.4054 -3.6398 -4.2845 1.6306 2.9119 0.1937 3.8740 3.1558 3.0336 2.7776 2.9080 0.8956 0.2433 3.4086 2.1455 -1.6636 -3.7305 -2.2737 2.5624 3.6675 5.0806 -1.3244 -4.4074 -4.6080 -2.1887 -0.3313 -0.4204 -1.5262 1.8704 -0.0121 0.3410 3.1390 0.8295 1.3985 3.6651 4.3196 -1.1882 0.7478 -0.7469 0.4408 -3.5282 -3.2294 -0.9370 -3.2239 -1.2595 2.7368 3.1610 2.3277 -0.8280 -3.9031 -3.4382 1.4443 3.4220 2.9827 -1.7008 -2.9213 0.2623
2.6829 0.9284 3.8381 -1.2779 -0.3682 1.2489 -3.9596 -2.3828 -2.4922 -3.8979 -3.8678 -0.4788 -3.8562 0.9609 -0.8114 -3.2221 2.2070 -0.2255 -1.6999 2.5519 1.7261 -3.5183 -1.3628 -0.1831 -0.6103 -3.8885 -0.3668 3.0282 -3.2116 -1.9455 2.4950 -2.3270 -3.0305 4.7020 2.8288 1.5856 2.0996 -3.7052 -1.1090 0.1461 3.7205 0.4754 3.7656 3.5571 0.7045 1.4378 3.9811 0.2043 0.6729 2.1711 2.2925 -1.0360 -2.3268 -2.4256 4.4065 2.0211 2.5505 1.2525 -2.0149 -3.2491 -2.8216 -0.1363 -0.6140 -2.2404 1.6966 0.6931 -0.2430 2.7765 1.5132 3.0598 1.7911 2.8086 -2.0166 0.3334 0.5733 0.7236 -3.3687 -1.3314 -1.6672 -2.9804 -1.4308 2.4774 3.3218 0.9817 0.3836 -2.5746 -2.3549 2.0986 2.3996 2.0648 -3.3651 -2.7313 -1.2120
3.9179 1.7697 1.8012 0.2802 0.5745 -1.3249 -3.6877 -2.5341 -0.4435 -2.0476 -3.1537 1.3464 -3.2342 0.9042 -0.7300 -2.6760 2.2421 -0.2872 -0.4284 3.3263 -0.4753 -1.8566 -0.8619 0.2250 0.4847 -3.3605 -0.9123 1.5799 -4.9892 -4.4268 0.1862 -4.9727 -4.9753 3.0907 3.3682 4.8868 1.7053 -4.4948 -3.1836 -0.5119 4.2027 1.8702 1.7754 4.0087 4.6811 -0.0166 4.3946 3.1059 1.4112 2.8869 1.1271 -1.7303 -3.5557 -2.2982 3.7738 2.6840 4.0290 -0.8856 -4.5408 -4.3805 -2.0409 -0.0112 -0.9703 -1.2672 2.1524 -0.5533 0.2015 3.4203 0.8713 3.2268 2.5068 2.7629 -0.8460 0.9075 -0.9839 0.5343 -4.0121 -2.5112 -1.2459 -3.1587 -1.1061 1.2753 3.8217 3.4536 -0.6571 -4.0603 -3.1212 2.0186 3.0445 2.4484 -2.3298 -2.5096 0.0747
2.2467 2.1750 4.8072 -1.5424 1.0959 -1.0714 -4.4160 -2.6320 -2.3410 -3.4748 -3.5576 -0.2156 -2.9556 -0.6506 1.6994 -2.3705 0.5891 2.3447 -1.5907 2.7675 1.3995 -3.3681 -1.0420 -0.6592 -1.5896 -2.9910 -3.8433 2.3427 -3.8265 -4.0709 2.5326 -3.7837 -2.5862 4.6760 3.5045 2.5532 1.0922 -3.5718 -4.4913 0.4802 3.5907 0.2801 3.9486 3.8477 1.3142 1.7938 3.8703 0.2193 0.6011 2.7381 2.5700 -0.7573 -3.0638 -1.3626 4.1880 2.9916 3.6340 1.6241 -3.5510 -1.6867 -2.3108 -0.7357 0.3238 -1.8822 1.3622 1.2348 -0.1199 2.9896 1.4617 2.8228 2.7254 3.6623 -1.8756 0.6780 0.0296 0.0770 -3.3016 -3.5134 -1.8581 -2.8725 -2.1134 2.6367 3.5870 1.3723 0.3842 -3.3109 -2.2100 2.0404 2.9998 2.5841 -3.3755 -2.6216 -1.3251
1.6491 2.7464 4.8557 -1.2705 0.4803 -1.2170 -4.4849 -3.1962 -1.7944 -3.1920 -3.6962 0.2934 -3.2085 -0.2462 1.6926 -2.5464 1.0718 2.0400 -1.3526 2.7821 0.6573 -3.4270 -1.2579 -0.4989 -1.7291 -2.5088 -3.5388 2.2239 -2.9076 -4.1782 2.4918 -3.4137 -2.7942 4.6250 3.2550 2.9475 0.9352 -2.6319 -4.4404 0.9938 3.0698 -0.1437 4.2034 3.3199 1.5327 2.3214 3.2148 0.0184 0.5563 2.8703 2.2536 -0.7567 -3.4062 -1.2773 3.8742 3.0766 3.9844 1.6227 -3.6037 -1.8467 -2.4405 -0.7891 0.4952 -1.8282 1.4303 0.8476 0.0979 2.8751 0.9869 2.5062 2.9429 3.7732 -1.7831 0.4296 -0.1083 -0.0392 -2.8381 -3.4088 -1.9050 -3.0301 -1.8734 2.8827 3.1842 1.3610 0.3406 -3.2960 -2.2091 1.9902 2.9969 2.5166 -3.3508 -2.9243 -0.9270
1.2550 3.4244 4.4265 -1.5961 0.4115 -1.5437 -3.6929 -3.0426 -0.6693 -2.2022 -3.7171 1.2290 -4.0946 0.6965 0.9855 -3.1967 1.8910 1.2522 -1.3121 2.9399 -0.0208 -2.6194 -1.2290 0.8083 0.5191 -2.3421 -0.3904 2.5788 -2.5685 -3.8427 1.3723 -2.9441 -4.6468 4.2672 2.0970 3.0392 2.3502 -2.3800 -2.5321 1.0185 2.1354 -0.4539 3.9733 1.7981 1.6227 2.2844 1.8470 -0.1039 0.4030 2.9233 1.7776 -1.2503 -3.0112 -2.2038 3.4634 2.5970 3.9193 0.1579 -3.1024 -4.2108 -3.3395 -0.2064 0.0173 -2.1934 1.8204 0.2260 0.0522 2.6504 0.5063 2.1639 2.8851 3.5164 -2.2656 0.6827 -0.5571 1.0169 -2.5502 -2.0317 -1.1149 -2.7374 -0.8921 2.7161 2.0859 1.2648 0.0264 -2.8907 -2.8666 1.7644 2.6454 2.2391 -2.5052 -2.8094 0.1352
4.0594 2.2752 3.0012 0.9366 0.1838 -0.5738 -3.6177 -2.2904 -0.6498 -2.1116 -3.4473 0.9829 -2.5618 0.9169 -0.6600 -1.9146 2.2706 -0.8638 0.4218 3.1099 -0.5378 -1.5085 -1.1027 0.1806 0.3509 -3.6233 -1.4780 0.8864 -5.5818 -4.9546 -0.5648 -5.5188 -5.3210 2.3610 4.2141 5.4734 1.1985 -5.0132 -3.7778 -0.3224 4.3186 1.5310 1.1186 4.6992 4.8374 -0.1933 4.7152 2.8095 1.7709 3.0551 1.5366 -2.0346 -3.7898 -2.5471 3.2789 3.4751 4.9430 -1.5262 -4.9863 -4.6275 -1.4543 -0.1011 -0.9026 -0.5190 2.0169 -0.6348 0.6590 3.4549 0.8911 3.1003 3.0740 3.6233 -0.1795 0.6748 -0.6656 0.1517 -4.4164 -2.9998 -1.3740 -3.3060 -1.4777 0.9767 4.3003 3.5680 -1.1098 -4.4346 -3.4483 1.9963 3.4532 2.9266 -2.2746 -2.5965 -0.1845
3.7432 4.1605 0.7106 -2.5043 0.5330 1.5695 -4.2863 -3.1162 -1.0348 -2.4696 -2.9590 0.6860 -1.2629 0.5425 -1.7722 -0.7443 1.8534 -1.2159 -1.3153 3.1616 0.8424 -2.9384 -0.9458 -0.8397 -1.9794 -3.0232 -3.5656 1.3798 -4.7610 -4.9403 1.8765 -5.1028 -3.5695 4.1263 3.5937 4.2167 0.2069 -4.1066 -4.9711 -0.4792 2.8983 3.1836 2.7852 3.2429 4.7280 0.4659 2.9067 4.1402 1.0773 3.5323 1.4072 -0.6990 -3.8282 -1.4254 4.4529 3.8793 2.9991 1.2982 -4.8356 -2.4366 -1.6512 -0.2834 -0.5539 -1.3146 1.9198 0.1029 -0.1675 3.1915 1.7925 3.4457 3.8636 2.0406 -1.9184 0.7441 0.5179 -0.4476 -3.8038 -3.7316 -1.8311 -3.2205 -1.8293 1.8378 3.2346 3.7827 0.1102 -4.1719 -2.5709 2.1664 3.5579 2.3843 -2.9632 -2.6576 -0.6473
1.3395 1.8075 4.7332 1.2428 -0.8074 -0.3872 -3.6591 -2.4490 -0.2391 -2.0947 -3.8341 1.1414 -1.9724 0.7529 -0.3487 -1.0269 1.9023 -0.6369 1.4757 2.1266 -0.4339 -1.4127 -1.4654 0.4793 0.0747 -4.1075 -1.4935 0.3613 -5.0605 -5.3929 -1.0492 -4.6554 -5.6912 1.7185 5.3382 5.1220 0.7381 -4.8970 -4.1136 1.6691 4.4466 0.4368 1.8021 5.8978 3.7577 1.7686 5.3806 1.3990 1.4961 2.5928 2.0222 -2.2710 -3.5372 -2.5115 1.5711 4.0981 5.4547 -1.9211 -4.1752 -4.8555 -1.1590 -0.5066 -0.6137 0.2752 1.3218 -0.4403 1.5153 3.0328 0.7488 1.4945 3.1603 4.4306 0.2746 -0.0630 -0.4441 -0.2107 -4.3719 -3.1754 -1.5727 -3.5215 -1.3598 1.7170 4.9727 2.7943 -1.4462 -4.0501 -3.5798 1.5654 3.5473 3.1294 -2.3037 -2.8763 0.0679
3.8861 3.3852 0.1987 -0.4247 0.5366 -0.7801 -4.2099 -2.5741 -2.4205 -3.6454 -3.1495 -0.0492 -3.3697 0.0812 1.2325 -3.0417 1.5500 1.3940 -1.2280 3.0564 0.5673 -3.0021 -0.8351 -0.9858 -0.3867 -3.4679 -0.7416 2.3876 -4.8539 -3.3073 1.5077 -4.6675 -4.5051 4.3136 3.6949 3.7316 1.8372 -4.4880 -2.1374 -0.3723 3.3179 2.9188 2.9597 3.6408 4.3172 0.5985 3.4529 3.8395 1.1918 3.2317 1.0408 -1.5093 -3.3291 -3.1048 4.6314 3.6259 2.4811 0.2965 -4.1966 -4.5228 -2.3309 -0.5058 0.2884 -1.8231 1.7416 0.6583 -0.0726 3.1713 1.5014 3.5998 3.4694 1.5617 -1.3927 0.6279 -0.0394 0.5019 -3.9657 -2.1357 -1.7364 -3.0935 -1.7981 1.9871 3.4985 3.4088 -0.1739 -3.8499 -3.2867 2.3066 3.3989 1.9755 -3.2860 -2.5046 -1.3009
1.2542 4.7567 4.5441 -1.2384 0.2013 -1.3350 -4.6244 -3.2958 -1.6012 -3.1224 -3.9104 0.3073 -2.8409 -0.4563 1.7883 -2.0956 0.8376 2.0487 -0.9954 2.4920 0.5127 -3.3735 -1.4375 -0.3643 -2.0976 -2.7576 -3.6603 1.7800 -2.9887 -4.7126 2.2249 -3.3938 -3.3413 4.5323 3.8066 3.4894 0.4577 -2.7902 -4.8435 1.4712 2.0920 0.2538 4.3583 3.0447 2.2358 2.7571 2.2078 0.6304 0.6241 3.3320 2.1841 -0.8374 -3.4779 -1.4797 3.6084 4.3447 4.2153 1.4756 -3.5698 -2.2939 -2.2522 -1.0232 0.5039 -1.5061 1.1664 0.7788 0.3846 2.6384 1.0549 2.2904 4.1979 3.7957 -1.6171 0.1677 -0.1730 -0.3859 -2.9816 -3.7000 -2.0641 -3.2026 -1.9641 3.0807 2.9248 1.8546 0.1467 -3.3510 -2.5281 1.9968 3.5128 2.6587 -3.3924 -3.0870 -0.8594
4.0997 1.7534 1.7431 0.1265 0.1884 -0.9388 -4.0565 -2.5108 -0.5334 -2.4555 -3.4551 1.1431 -3.3018 0.9849 -0.2626 -2.6531 2.3371 -0.4719 -0.2759 3.1070 -0.5989 -2.1428 -1.0550 0.3366 -2.2467 -4.0788 -2.7495 1.1947 -4.7777 -4.7161 2.0391 -4.1444 -3.6535 3.2450 3.4844 4.7482 -0.1244 -4.7862 -4.4613 -0.3723 4.1099 1.7001 1.9139 4.0823 4.5173 0.1169 4.3637 2.9269 1.5672 2.7826 1.0225 -0.3657 -3.1124 -1.2053 3.9397 2.7712 3.9242 1.6314 -3.6205 -2.5361 -2.2814 -0.0437 -0.7318 -1.2499 2.0407 -0.5556 0.3502 3.2860 0.7413 3.3942 2.5208 2.6698 -0.9675 0.6998 -0.7460 -0.5944 -4.2099 -3.2351 -1.7019 -3.2469 -1.3079 1.4174 3.8284 3.3005 0.2761 -3.6781 -2.3673 2.1745 3.0175 2.3325 -2.6968 -2.6385 -0.0350
-0.0122 5.4124 4.3105 0.1764 0.2148 -1.3628 -3.2437 -3.0873 -0.0694 -1.1883 -4.0900 0.9582 -2.6680 0.2951 0.8198 -2.2501 1.7475 0.7174 -0.2086 2.8964 -0.1764 -1.2070 -1.5913 0.4108 0.5775 -3.5976 -1.9293 0.5294 -4.6332 -5.8183 -0.9658 -4.6191 -5.9002 3.2954 4.2664 5.0217 1.0343 -4.3188 -4.6134 2.0349 2.3853 0.8193 3.6863 3.4040 3.8869 2.9895 2.4863 1.7606 0.4675 3.8272 2.0189 -1.9580 -3.7231 -2.5745 2.1767 4.8936 5.1820 -1.8006 -4.3442 -4.9428 -1.8745 -0.4488 -0.2475 -1.0066 1.7042 -0.0014 0.7459 3.0459 0.9577 1.2139 4.7587 4.1869 -0.7526 0.4916 -0.6181 0.1294 -4.0059 -3.5461 -1.1281 -3.4651 -1.5458 2.7423 3.2975 2.9433 -1.1927 -4.0348 -3.7580 1.4529 3.9933 3.0890 -1.7954 -3.1610 0.0211
4.1939 3.8161 1.4206 -2.8216 1.1164 0.7285 -3.8742 -2.2067 -0.6560 -2.4761 -3.7294 0.7588 -0.1001 -0.0881 -1.2594 0.1602 1.4016 -1.1690 -0.7925 3.2260 0.2604 -1.5646 -1.4159 0.1461 -2.3125 -3.0809 -3.3802 0.5470 -4.9562 -5.5033 1.2882 -5.4076 -4.2828 3.5378 4.0124 4.9269 -0.5611 -4.2370 -5.2594 -0.6608 3.3601 2.7534 2.0768 3.8580 5.0832 -0.0171 3.5260 3.9229 1.3832 3.5125 1.4194 -0.6810 -4.0861 -1.5938 4.2148 4.0025 3.8258 0.9720 -5.1787 -3.0431 -1.5365 -0.2757 -0.7911 -0.8101 1.8609 -0.2120 0.0496 3.3372 1.4836 3.5123 3.8345 2.6376 -1.8282 0.9550 0.0339 -0.9281 -3.9745 -3.8979 -1.8205 -3.3795 -1.7244 1.4285 3.6947 3.9237 -0.1707 -4.4419 -2.8969 2.1610 3.6841 2.6466 -2.5696 -2.7399 -0.3018
2.6448 5.3803 0.9285 -2.2937 -0.2438 1.6949 -4.3819 -3.0249 -1.6476 -2.9383 -2.9906 0.3980 -1.9326 1.0866 -1.6063 -1.4931 2.2329 -0.7180 -1.6294 2.6382 1.7552 -3.2425 -0.8465 -0.9609 -1.5260 -2.4541 -3.5893 2.0192 -4.1519 -4.4500 2.1271 -4.8242 -3.1159 4.5721 3.4067 3.1980 0.9129 -3.4090 -4.6220 0.1310 1.6645 3.2540 3.6512 2.3903 3.7472 1.3824 1.5590 3.7352 0.6679 3.5674 1.8142 -0.8673 -3.7942 -1.4360 4.2970 4.3357 2.3427 1.2810 -4.7544 -2.1317 -1.9693 -0.1432 -0.7099 -1.7261 1.7524 0.6171 -0.2254 2.6615 2.2546 2.9937 4.4053 1.8631 -2.0507 0.4101 0.6908 -0.0364 -3.3262 -3.5507 -1.8279 -3.0038 -1.9519 2.4028 2.4889 3.2748 0.1895 -3.9770 -2.4022 2.0487 3.5289 2.2950 -3.1808 -2.5646 -0.9709
0.2733 4.6847 4.2641 -0.1900 -0.1418 -1.2441 -3.6963 -3.1823 0.2024 -1.5803 -4.1010 1.1785 -3.0300 0.4582 0.8590 -2.5113 1.8477 0.5501 -0.3825 2.7076 -0.4511 -1.7456 -1.5904 0.7096 -2.4703 -3.1542 -2.8245 0.4749 -3.2494 -5.5638 1.5416 -3.5067 -4.5444 3.6598 3.5651 4.4584 -0.7711 -3.1609 -5.0689 1.9758 2.1940 0.2096 3.9406 2.8738 3.1833 3.0286 2.2096 1.0464 0.5279 3.4303 1.7446 -0.2785 -3.5904 -1.4585 2.5544 4.1296 4.8192 1.3839 -3.6453 -3.2618 -2.3014 -0.4808 -0.0933 -1.2734 1.6125 -0.1401 0.6982 2.7906 0.5718 1.4908 4.0953 3.9239 -1.1046 0.3081 -0.5687 -0.9664 -3.3168 -3.6568 -1.6070 -3.4125 -1.3196 2.8990 2.8576 2.3429 0.0826 -3.5426 -2.8554 1.6220 3.4887 2.7144 -2.2448 -3.1786 0.2728
0.1104 4.2234 4.9200 -0.0940 0.6224 -1.5868 -2.8592 -3.2038 0.6038 -0.4550 -3.7495 1.0390 -2.9659 0.2017 0.5149 -2.4620 1.5843 0.8766 -0.6895 3.0882 -0.0469 -1.0939 -1.3534 0.4168 -2.4931 -3.4897 -2.6211 -0.4327 -4.4023 -5.9553 0.8910 -4.3819 -5.2550 3.6444 3.7915 4.6324 -1.4886 -4.1110 -5.1771 1.7739 2.8923 0.3356 3.9003 3.4041 3.2300 2.8919 2.9622 1.0796 0.3048 3.5165 2.1890 0.0163 -3.5712 -1.8735 2.5021 4.0470 5.1804 1.1113 -4.1168 -4.0018 -1.9161 -0.4273 -0.3910 -1.3233 1.7916 0.0262 0.4582 3.1529 0.9012 1.3685 3.9582 4.3797 -0.9829 0.6995 -0.7503 -1.2662 -3.8160 -3.7914 -1.2341 -3.3919 -1.4056 2.7914 3.3273 2.4846 -0.0232 -3.8342 -3.2929 1.4707 3.6135 3.0684 -1.4556 -3.0277 0.2702
3.8109 0.7950 2.5249 -0.6161 -0.6591 0.3414 -3.7479 -1.1844 -3.3605 -4.3653 -3.0941 -1.8615 -3.3095 1.4420 -0.7564 -3.0570 1.8923 0.6687 -1.2947 1.3960 2.3710 -3.3333 -0.9886 -0.8324 -0.6360 -2.1343 -3.5146 2.6310 -4.1543 -2.3153 1.9071 -4.8505 -1.2040 4.4231 4.2949 2.1565 1.8733 -3.3243 -3.0516 -0.3107 3.6943 2.1305 3.0970 4.9384 2.0578 0.7094 4.5677 2.0555 1.1549 1.7487 2.3452 -1.4317 -3.5746 -1.4766 4.6761 3.0356 2.3004 0.6509 -4.7332 -0.8915 -2.4615 0.1967 -0.9740 -1.8844 1.1671 1.0715 -0.0871 2.2603 2.2487 3.5945 2.1640 2.3676 -1.5239 0.1491 0.2072 0.4844 -3.1835 -2.7242 -1.8626 -2.6790 -2.3865 2.0766 4.0750 2.1270 -0.0364 -3.8707 -1.6995 2.3206 2.6314 2.2822 -3.4519 -2.0179 -2.2075
3.8281 1.5649 0.8061 -0.3782 0.6281 -1.4833 -3.9760 -2.6303 -0.4341 -2.2813 -3.2064 1.3173 -3.7480 0.9792 -0.3397 -3.0881 2.2639 0.1224 -0.8683 3.3244 -0.3371 -2.2866 -0.8512 0.3188 -1.9174 -3.4939 -2.7851 1.6789 -4.3548 -4.3723 2.4185 -4.0210 -3.1133 3.6394 2.7121 4.1839 0.3468 -4.1931 -4.3059 -0.4753 3.8929 2.0739 2.3150 3.3504 4.3306 0.2541 3.9213 3.2037 1.2501 2.7211 0.7968 -0.1963 -3.0456 -0.8620 4.1336 2.1628 3.1234 1.9105 -3.6031 -1.9922 -2.6273 0.0556 -0.7988 -1.7415 2.1732 -0.3701 0.0184 3.2618 0.8585 3.3470 2.1516 1.9768 -1.4271 0.9554 -0.9463 -0.2327 -3.7327 -3.0776 -1.5134 -3.0267 -1.1458 1.5822 3.3260 3.2106 0.5499 -3.4722 -2.0224 2.1065 2.7073 1.9821 -2.6215 -2.5212 0.0813
-0.5054 3.6150 5.1635 -1.6248 0.4510 1.0937 -2.2394 -2.9281 0.4947 -0.0995 -4.1854 0.8368 0.6333 -0.1566 -1.6145 0.5272 1.3538 -1.5739 -0.4448 2.9719 0.0667 -0.0040 -1.7376 0.1111 0.5374 -4.1040 -2.5345 -1.0357 -4.9214 -6.1474 -2.4439 -4.6936 -5.6899 2.8322 4.8842 5.2294 -0.0990 -4.7610 -5.1973 1.8391 3.8032 0.6887 3.3181 4.8438 3.8347 2.7538 4.2758 1.5539 0.1552 3.4245 2.4211 -2.0518 -3.8354 -2.2313 1.6712 4.5231 5.6680 -2.8384 -4.3768 -4.4920 -0.5177 -0.6617 -0.7580 -0.2095 1.6150 -0.3669 0.5249 3.3575 1.1282 0.7597 4.0258 4.7431 -0.8566 0.5008 0.1444 -0.5134 -4.4043 -3.8720 -0.8809 -3.7277 -1.5744 2.4161 4.3704 2.9668 -1.8139 -4.2372 -3.5978 1.0872 3.9346 3.4265 -0.8769 -3.2198 0.0785
1.6516 5.7800 2.1715 -1.4481 -1.2141 1.5037 -4.0648 -1.8508 -2.7967 -4.2119 -3.7305 -1.1521 -3.4227 1.0353 -0.4045 -2.6208 1.9721 0.4808 -1.2605 1.5535 2.5499 -3.6029 -1.3941 -0.3256 -0.8459 -3.8138 -0.7787 2.7291 -3.6886 -2.6273 2.2017 -2.9139 -3.7957 4.6541 3.8990 1.7140 1.8169 -3.9846 -1.6859 1.1042 0.7607 2.2506 4.2625 2.4758 1.7689 2.4222 0.9378 2.0537 0.6100 3.1544 2.2631 -1.2577 -2.4532 -2.9780 3.8854 4.9304 1.8414 0.9835 -2.4978 -3.9750 -2.6465 -0.2736 -0.3922 -1.8713 1.0825 1.3273 0.1754 1.8810 2.3160 2.5264 4.7031 2.0299 -1.9284 -0.2453 0.9343 0.4644 -3.5449 -1.8716 -1.8788 -2.9162 -1.8763 2.9501 2.2894 1.9559 0.1318 -2.8441 -2.9632 2.0354 3.4365 2.0804 -3.5445 -2.5260 -1.6184
3.5102 0.9262 0.4070 -1.0618 0.3853 -1.3540 -4.4089 -3.0640 -2.1661 -3.6276 -3.3337 0.1990 -3.6732 0.3559 1.0770 -2.9311 1.6405 1.3884 -1.2244 2.9550 0.0996 -3.5181 -1.0155 -0.9182 -1.3290 -2.8850 -3.3566 2.6684 -3.2273 -3.0371 2.6293 -3.3889 -1.5484 4.3949 2.9708 3.1997 1.4675 -3.0859 -3.6228 -0.1108 4.0453 2.0513 3.2044 3.7906 3.5056 0.9247 4.2876 2.8750 1.1100 2.3811 0.7399 -0.8713 -3.2053 -0.7977 4.5207 2.0866 2.2654 1.5747 -3.4056 -0.7889 -2.7317 -0.4579 0.2000 -1.9246 1.7190 0.3642 -0.0246 3.0677 0.9761 3.4293 1.8698 1.4315 -1.8057 0.5717 -0.4018 0.2921 -3.0994 -2.8013 -1.8637 -3.0288 -1.6919 2.1702 3.5575 2.6887 0.4022 -3.2550 -1.4757 2.2758 2.5682 1.6038 -3.4677 -2.7264 -1.1119
3.6094 1.4200 3.5906 -0.4806 -0.7967 1.1978 -1.0232 0.1799 -3.8780 -3.1754 -0.8766 -3.1471 -3.6156 0.4423 0.0154 -3.2392 1.4325 1.0997 -1.4776 1.4544 2.8726 -1.6493 0.2158 -1.4010 0.6904 -2.2769 -2.0243 1.3509 -6.2313 -2.3765 0.0163 -6.4932 -3.0040 4.0202 4.6927 2.2194 1.5867 -4.9463 -2.0628 -0.6415 3.6865 2.0631 2.6685 5.1568 1.8451 0.3197 4.5905 1.8031 0.9269 2.0250 2.9332 -1.4822 -3.2385 -3.1284 4.3409 3.5640 2.7614 -0.9114 -5.6216 -3.2668 -2.3698 -0.3899 -0.2599 -2.0067 0.9249 1.6361 -0.3323 2.3697 2.6032 3.3184 2.6554 3.0120 -1.4809 -0.1454 0.9338 0.5753 -3.9697 -2.3447 -0.9262 -2.0971 -2.6791 1.7054 4.2642 2.1045 -0.5798 -4.3441 -2.9100 2.0302 2.9573 2.6991 -1.7677 -0.6046 -2.9073
0.9679 5.1521 4.1054 -0.3315 -1.2020 0.1223 -4.2947 -1.1900 -2.5900 -4.3905 -3.4017 -1.4200 -3.2268 0.9077 0.3995 -2.4662 1.1586 1.6868 -0.2724 0.3847 2.6100 -3.2397 -1.4317 -0.2630 -1.2941 -1.7607 -3.7204 2.2535 -3.6544 -3.8730 1.8853 -4.6284 -2.7965 4.0193 5.1379 2.2483 1.2926 -2.7699 -4.1888 1.9118 0.9241 1.5037 4.0833 3.8281 1.5683 2.9671 1.7124 1.2342 0.8225 2.5845 2.9305 -1.4539 -3.6587 -1.9225 3.0860 5.5718 3.0301 0.7560 -4.7009 -2.1569 -2.4704 -0.1731 -0.3602 -1.2505 0.4075 1.5466 0.8085 1.3740 2.3407 2.0035 4.7327 3.2705 -1.2134 -0.4147 0.4362 0.0391 -2.8347 -3.4953 -2.1491 -2.6415 -2.4682 3.0313 3.0410 1.8233 -0.1585 -3.7643 -2.5518 1.9415 3.5000 2.7004 -3.6577 -2.1905 -1.7501
1.3790 3.4769 4.2294 -1.9422 0.3456 -1.6635 -3.8755 -3.0508 -0.6672 -2.2793 -3.8121 1.1047 -4.0603 0.6703 1.1790 -3.0552 1.7912 1.3749 -1.3005 2.7856 -0.1145 -2.7052 -1.3121 0.8122 -1.3356 -3.5031 -2.6787 2.2788 -2.4451 -4.0982 2.6665 -1.7294 -2.8408 4.3293 1.9969 2.8634 1.0568 -3.0033 -4.0779 0.9973 1.8858 -0.5514 3.9965 1.6180 1.4746 2.2675 1.5984 -0.2142 0.4570 2.8319 1.6375 -0.1891 -2.1919 -0.7227 3.5571 2.5686 3.7280 1.9618 -1.6146 -1.7549 -3.4717 -0.2528 0.1178 -2.2030 1.7075 0.2204 0.0681 2.4863 0.3954 2.2554 2.8609 3.3359 -2.4460 0.6065 -0.5803 0.2605 -2.8793 -2.8919 -1.3322 -2.8166 -1.0672 2.7377 1.9113 1.1268 0.7396 -2.2227 -1.8276 1.8217 2.5513 2.0853 -2.6348 -2.8591 0.0658
-0.1844 3.6699 5.3571 -1.4912 0.3641 1.4414 -0.7253 -3.0924 1.0007 1.5138 -3.4263 -0.0673 -0.8034 0.2189 -2.0661 -0.4910 1.6583 -1.7074 -0.9141 3.0594 0.3146 0.2728 -1.2223 -0.4320 -2.1997 -4.3033 -1.6166 -2.5804 -5.2009 -5.5213 -1.2241 -4.6698 -5.8715 3.2791 4.4480 4.9607 -2.9084 -5.1035 -4.2219 1.5277 3.6006 0.6028 3.5591 4.3606 3.5126 2.6107 3.9213 1.3329 0.0643 3.4181 2.5524 0.0434 -3.5215 -2.7206 2.1493 4.2471 5.5555 -0.3576 -4.1371 -5.0624 -0.9902 -0.5247 -0.7514 -0.8017 1.7604 -0.3085 0.2395 3.3191 1.2208 1.0584 3.8984 4.7667 -1.1324 0.5568 0.2887 -1.9649 -4.5196 -3.3135 -0.6007 -3.5916 -1.5390 2.4895 4.0290 2.7792 -0.7815 -4.0832 -3.7639 1.1874 3.7788 3.4186 0.1561 -2.9125 -0.1412
3.3959 0.4262 1.0273 -1.1858 -0.8944 0.7257 -3.3810 -0.9107 -3.5090 -4.1554 -3.0156 -2.3935 -3.7030 1.3532 -0.4175 -3.0174 2.1432 0.6802 -1.4276 1.4598 2.4980 -3.5079 -1.0085 -0.9424 -0.2290 -1.5989 -2.9899 2.8340 -3.7322 -1.4902 1.9370 -4.6752 -0.7486 4.4732 3.7921 1.5527 2.1976 -2.7799 -2.1923 -0.1695 3.6146 2.6463 3.2862 4.5370 2.0225 0.9330 4.3807 2.5602 0.9864 1.5850 1.9240 -1.3474 -3.4778 -1.5461 4.5424 2.5397 1.2407 0.6373 -4.6680 -0.7271 -2.7328 0.2360 -0.7756 -2.0549 1.2205 1.2192 -0.1483 2.1993 2.3087 3.3821 1.7822 1.3550 -1.8997 0.0651 0.4721 0.7643 -2.7536 -2.1782 -1.6320 -2.4202 -2.3311 2.1851 3.7821 2.1203 0.0825 -3.6676 -1.4758 2.2239 2.3502 1.7821 -3.2692 -1.8644 -2.4178
2.8838 3.8492 -0.7210 -1.2922 0.9583 -0.9629 -4.1353 -2.4103 -2.8611 -4.0762 -3.3900 -0.5590 -3.3562 -0.5996 1.5014 -2.7910 0.5998 2.2336 -1.6181 2.6638 1.4487 -3.4076 -0.9470 -0.8985 -0.9973 -4.3006 -0.9791 2.7648 -3.9257 -2.3602 2.4209 -2.7752 -3.2556 4.6979 3.3362 2.3134 1.7348 -4.4214 -1.6539 0.1060 2.4567 3.2638 3.7014 2.9397 3.3293 1.3598 2.5136 3.7472 0.7744 3.0945 0.9994 -1.0859 -2.3087 -2.6774 4.4825 3.6258 1.0724 1.2528 -2.2282 -3.4156 -2.5008 -0.7624 0.2528 -2.0248 1.2940 1.2353 -0.1888 2.7214 1.8628 3.1730 3.5510 0.6107 -1.8673 0.5927 0.0522 0.4376 -3.8324 -1.8184 -1.8502 -3.0311 -1.8351 2.4508 2.8793 2.8564 0.2698 -2.8044 -2.6602 2.1638 3.1888 1.4461 -3.4823 -2.5279 -1.5676
3.9858 2.8975 4.3422 -2.6148 0.5920 0.9226 -2.3850 0.0638 -3.7663 -3.5987 -1.1641 -1.9502 0.3553 -1.2028 0.0378 0.6011 -0.7953 1.4768 -0.5382 0.8275 3.0162 -1.2500 -0.2152 -1.4863 -0.2004 -2.4360 -4.2100 0.7043 -6.3538 -4.0559 -0.4225 -6.6730 -3.1219 3.1571 6.0723 2.9305 0.7907 -5.0632 -4.4186 -0.5946 3.2084 2.2279 1.7957 5.9344 2.3737 -0.0732 4.4358 2.0550 1.3956 2.3398 3.3528 -1.9832 -3.4884 -2.6050 3.8494 5.1678 3.5410 -1.3008 -5.8445 -2.6407 -1.1266 -0.9539 -0.2128 -0.4948 0.0861 1.7765 0.1601 2.1347 2.8582 3.2778 3.9093 3.6944 -1.5350 0.0208 0.8652 -0.1710 -4.1344 -3.9007 -1.5952 -2.3211 -3.1530 1.2697 4.7147 2.5413 -1.1312 -4.5572 -3.0687 2.0309 3.6519 3.2185 -2.3585 -0.8540 -2.6403
0.4710 6.2904 3.2195 0.7072 -0.2829 -1.1344 -3.4183 -2.9932 0.2231 -1.3682 -4.3015 0.8112 -2.3514 0.3308 0.6130 -1.7827 1.7194 0.4024 0.4927 2.5402 -0.2788 -1.1706 -1.7809 0.4315 -2.8771 -3.5935 -2.9135 -0.6555 -4.5075 -6.1417 0.6299 -4.5088 -5.3716 2.8638 4.6385 5.2950 -1.7460 -4.2035 -5.4189 2.1606 1.8644 1.4790 3.2091 3.3770 4.6063 2.8157 2.0216 2.6430 0.9107 3.9516 1.7056 -0.4178 -3.7505 -2.0273 2.0320 5.5470 4.9034 0.7839 -4.2891 -4.1001 -1.5660 -0.5762 -0.3257 -0.4698 1.4722 -0.1283 1.1640 2.8210 1.0211 1.3728 5.3397 3.6974 -0.2821 0.1778 -0.5828 -1.5962 -3.9523 -4.0147 -1.6860 -3.5246 -1.6309 2.5576 3.2053 3.4495 -0.3842 -4.0072 -3.4484 1.5973 4.2131 2.9706 -1.9963 -3.2384 0.0456
3.6540 1.2918 0.2552 -0.5706 -0.3413 -0.1342 -3.0786 -0.6920 -3.2699 -4.3454 -2.6342 -2.3227 -3.6895 1.3722 0.2653 -3.1265 1.3191 1.6737 -0.8917 0.6824 2.6168 -3.4686 -0.8400 -0.7285 -1.5395 -3.8962 -0.8888 2.3239 -4.8563 -1.4867 2.5247 -3.7931 -2.5226 4.0334 4.6319 1.4633 1.0863 -4.9131 -0.9669 -0.1028 2.9881 3.1854 2.8425 4.9099 2.2921 0.7613 4.0172 3.1344 1.2801 1.5478 1.7736 -0.7023 -2.2429 -2.7409 4.3125 3.5400 0.8308 1.6392 -2.9490 -2.9621 -2.8051 0.4739 -0.5922 -1.8178 0.7520 1.5088 0.1477 1.7421 2.4773 3.4031 2.4918 0.9211 -1.5833 0.2222 0.2546 0.0960 -3.9880 -1.4364 -1.7878 -2.5741 -2.0146 1.9853 3.8841 2.3585 0.4102 -3.0906 -2.3797 2.2646 2.6230 1.6527 -3.2551 -1.6787 -2.2175
3.8664 1.0378 2.5501 -0.6516 -1.0109 0.9628 -1.8927 0.1181 -3.8286 -3.8163 -1.1605 -2.8597 -3.9267 0.3347 0.4736 -3.3324 1.2438 1.5315 -1.2584 1.1453 2.9246 -2.2696 0.1636 -1.2986 -1.9298 -3.7517 -2.3483 1.5437 -5.6861 -1.7255 2.3679 -4.4426 -1.8593 4.0401 4.3914 1.3326 0.2210 -5.5080 -1.8804 -0.5674 3.4223 2.1058 2.6489 4.8855 1.2819 0.3340 4.3355 1.7030 1.1170 1.6980 2.5147 -0.0804 -1.9027 -2.4961 4.4463 3.2266 1.7184 1.9396 -3.2404 -2.1056 -2.7760 -0.4973 -0.0762 -2.0312 0.6916 1.7901 -0.1766 2.0711 2.4833 3.4829 2.3092 2.1233 -1.6711 -0.3366 0.9372 -0.2710 -4.1889 -2.1526 -1.4117 -2.0936 -2.5769 1.7455 3.9824 1.6815 0.5824 -3.1611 -2.2486 2.1636 2.6376 2.1103 -2.4364 -0.7139 -2.7682
-0.1372 5.8486 2.1889 -1.9016 1.1873 0.6906 -3.2536 -0.4225 -2.0688 -4.2184 -2.6227 -1.3664 0.1172 -1.7757 0.5584 0.2944 -1.2816 1.9798 -0.3578 0.8049 3.1957 -2.2285 -1.6703 -0.0724 -0.8845 -1.8456 -3.7989 1.1611 -4.9848 -5.2667 0.4422 -5.9755 -4.4026 3.4109 5.9589 2.5789 0.7735 -3.7082 -5.1058 2.0612 1.4521 3.3707 3.8336 4.5851 2.9202 3.0859 2.3210 3.3112 0.3846 3.1320 2.7830 -1.8244 -3.9315 -2.5224 2.2097 6.3797 2.3556 -0.4909 -5.7266 -3.5328 -0.9625 -0.9083 -0.0735 -0.3878 -0.0178 2.0082 0.6940 1.8536 3.0717 1.1788 5.4488 2.4222 -1.1694 0.2292 0.8947 -0.2573 -3.4141 -4.1535 -1.9602 -2.5958 -2.6350 2.8205 3.7121 2.9748 -0.8149 -4.4021 -3.4414 1.4380 4.1456 2.7128 -3.0565 -1.7760 -1.5773
3.5854 1.4691 -0.4474 -1.0003 0.5410 -1.5815 -4.0313 -2.8346 -0.8802 -2.8179 -3.2117 1.2796 -4.2974 1.0635 -0.3466 -3.5330 2.2446 0.2228 -1.2545 3.1785 -0.2222 -2.9489 -0.8397 0.3287 -1.2648 -2.9519 -2.5955 2.7186 -2.7322 -3.1234 2.9961 -2.5438 -1.6636 4.0015 1.5994 3.0981 1.4199 -2.8654 -3.4405 -0.4482 3.0479 2.1570 2.7131 2.0687 3.6486 0.4717 2.7940 3.1052 1.0364 2.4165 0.3196 -0.2742 -2.5916 -0.1972 4.3007 1.4042 1.8559 2.1256 -2.4948 -0.6996 -3.2454 0.0619 -0.8080 -2.2075 2.0950 -0.3120 -0.1708 2.8370 0.7433 3.3181 1.6662 0.9074 -1.9999 0.8974 -0.9746 0.4448 -2.8221 -2.3901 -1.4350 -2.7552 -0.8618 1.7894 2.3166 2.7120 0.8336 -2.6456 -1.1207 2.0919 2.1149 1.2857 -2.9177 -2.5277 0.0011
0.6445 2.9988 5.5629 0.5006 -0.6875 1.8640 -3.5144 -1.9118 -0.3948 -1.6524 -3.0170 0.8602 0.8298 -0.2158 -1.6691 2.0279 0.5155 -1.1002 2.6998 1.2050 1.2082 -1.1748 -0.8837 -0.4866 -0.5074 -4.5116 -1.8139 -0.6550 -5.6103 -5.6823 -1.7402 -4.6327 -6.0163 0.1314 6.2605 4.2000 -0.2571 -5.5973 -4.3993 2.1040 3.6031 0.7633 0.6247 6.2102 2.8083 1.6228 4.8106 1.1093 1.6229 2.6030 2.9421 -2.3546 -2.9938 -2.8849 0.1307 5.3037 5.0687 -2.3191 -3.7972 -5.2057 0.2899 -1.0619 -0.5252 1.8057 0.4967 0.3195 2.0772 2.4729 1.6811 0.6261 4.0682 4.6672 0.8331 -0.4046 0.7224 -0.8861 -4.6851 -3.4895 -1.7349 -3.2614 -1.7190 1.0953 5.0089 2.4512 -1.8472 -3.8600 -3.9236 1.0960 3.8871 3.4045 -2.1191 -2.3126 -0.3225
4.1707 2.2836 2.9017 0.4116 -0.6298 0.5643 -0.5588 -0.1848 -4.3070 -2.8576 -0.6440 -3.4235 -2.8184 0.6685 -0.2681 -2.6933 0.9503 1.2145 -0.7756 0.8864 2.8202 -1.0251 0.1347 -1.8160 0.5997 -2.9086 -2.3910 0.2160 -6.9143 -2.4808 -1.1751 -6.8619 -3.0337 3.3792 5.7615 3.0968 0.7894 -5.7164 -2.2765 -0.7587 3.3943 2.9097 1.9048 5.8516 3.0783 -0.1561 4.5944 2.9820 1.3476 2.1556 2.8343 -1.8031 -3.3454 -3.3379 4.1014 4.6907 3.0465 -1.8623 -5.7989 -3.3288 -1.7052 -0.3204 -0.5868 -1.3266 0.6195 1.5119 0.0014 2.1567 2.8096 3.4401 3.4706 2.9570 -0.7069 -0.1362 0.5313 0.0461 -4.5319 -2.5937 -0.9538 -2.3596 -2.9903 1.2972 4.6619 2.9949 -1.1960 -4.6306 -3.0843 2.0821 3.4183 2.9247 -1.4148 -0.7157 -3.2592
2.8318 -0.4808 1.5967 -1.7314 -0.8836 1.2871 -2.6016 -0.5987 -3.7103 -3.6538 -2.1201 -2.0161 -4.4534 1.1884 0.2870 -3.6111 2.1212 1.1372 -1.6699 1.7515 2.6736 -2.8903 0.2346 -1.3063 0.3754 -0.7185 -1.8537 3.2011 -3.4523 -0.9912 2.2272 -4.5899 -0.9684 4.2755 2.5617 0.4067 2.6649 -2.2545 -1.2786 -0.1693 3.5745 1.8225 3.2476 3.6066 0.5946 0.9876 4.0541 1.3303 0.6621 1.2806 1.9765 -0.8984 -3.0054 -1.7283 4.1766 1.3032 0.6848 0.9485 -4.5316 -1.1951 -3.5752 -0.0179 -0.0201 -2.5320 1.2958 1.6054 -0.3455 2.1614 2.1254 2.9803 0.8577 1.2351 -2.4927 0.0380 1.0283 1.2525 -2.1652 -1.5082 -1.0851 -1.6873 -1.9324 2.0989 3.1420 1.1007 0.4960 -3.2694 -1.4632 1.9462 1.7168 1.4323 -2.6624 -1.1128 -2.3526
-0.2610 5.6852 2.1846 -1.9877 1.0171 1.0499 -2.8612 -0.1635 -2.0548 -4.4251 -2.0882 -1.6961 -0.6275 -2.2743 1.2488 0.1307 -1.5276 2.3279 -0.2266 0.6928 3.4323 -2.6329 -1.5966 0.0630 -1.8353 -4.3220 -2.0944 1.2743 -5.3468 -4.4376 1.4812 -3.9496 -4.9345 3.2604 5.7562 1.5892 0.2789 -5.4895 -3.5470 2.1649 1.3185 2.9597 3.7553 4.3943 1.8763 3.1349 2.1658 2.5738 0.3974 2.9970 2.7728 -1.0733 -2.0918 -3.2384 2.0453 6.1859 1.6853 0.8009 -2.8914 -4.6045 -1.2463 -1.1955 0.3717 -0.4755 -0.2230 2.3401 0.7680 1.7264 3.0236 1.0685 5.2773 2.0802 -1.3314 0.0106 1.2758 -0.4869 -4.3359 -3.1749 -1.9897 -2.5989 -2.3917 2.7933 3.5439 2.2552 -0.1972 -3.1400 -3.7043 1.3940 3.9879 2.3636 -3.0906 -1.5240 -1.5956
0.0858 5.4260 1.1575 -2.0592 1.2352 0.7641 -2.4498 0.2587 -2.3117 -4.1121 -1.6131 -2.3722 -0.9076 -2.1012 1.2400 -0.3093 -1.3676 2.4240 -0.7495 0.8918 3.4148 -2.6113 -1.3518 -0.3182 -0.0615 -1.6687 -3.4018 1.6245 -5.1846 -4.4064 0.4611 -5.9879 -3.9118 3.5727 5.3878 1.9320 1.4974 -3.8550 -4.2592 1.6851 1.4038 3.7612 3.8133 4.1455 2.6957 2.7942 2.1490 3.6049 0.2584 2.9843 2.5588 -1.8072 -3.4911 -2.7012 2.4490 5.8133 1.4564 -0.6365 -5.5359 -3.3820 -1.2925 -1.0125 0.2488 -0.8386 -0.0356 2.3083 0.4030 1.8130 3.2065 1.3240 5.0213 1.6572 -1.4880 0.2116 1.1098 0.2961 -3.3375 -3.6701 -1.6042 -2.1595 -2.7280 2.7116 3.4066 2.8758 -0.6731 -4.1735 -3.2763 1.4154 3.8491 2.3374 -2.7911 -1.1216 -2.0142
0.8425 4.5363 5.0898 0.8224 -1.4572 0.1004 -2.9677 0.0632 -2.8004 -4.1097 -1.5184 -1.2318 -2.2906 -0.9979 1.8071 -1.3077 -0.2099 2.6515 1.1883 0.0341 2.6268 -1.9163 -0.4137 -0.5257 -2.6109 -3.9516 -2.7600 0.5255 -5.7933 -4.4830 1.3777 -4.5617 -4.4638 2.2810 6.3475 2.3676 -0.7034 -5.6393 -3.9616 2.0187 1.7790 1.0214 2.5194 5.3608 1.2946 2.3554 3.0330 0.6717 1.2344 2.4314 3.2438 -0.7619 -2.1076 -2.9641 1.7700 6.1306 3.5347 1.0523 -3.3891 -4.0072 -1.5585 -1.3865 0.5293 -0.0391 -0.4072 2.0058 1.4368 1.4718 2.3208 1.4019 4.8260 3.8454 -0.1057 -1.1105 0.8173 -1.0810 -4.3530 -3.4522 -2.0206 -2.3180 -2.5326 2.1626 4.1142 1.6259 -0.2167 -3.3311 -3.5022 1.5830 3.8218 2.9472 -2.8821 -1.0036 -1.8166
-0.5749 4.3105 4.2832 0.9871 -0.6979 -0.2211 -3.3925 -0.0604 -2.5097 -3.8649 -1.9386 -0.9180 -1.9146 -1.0163 1.8606 -0.7862 -0.8034 2.8477 1.5935 -0.0743 2.6211 -1.8726 -0.3786 -0.4751 -0.4844 -1.5811 -3.5180 1.0323 -5.0282 -4.9396 0.0003 -5.8725 -4.2571 1.7353 6.3413 2.4680 0.9094 -3.7065 -4.7317 2.8743 1.7943 1.5779 2.6426 5.4101 1.7663 3.1675 3.0879 1.3547 1.0120 2.3058 3.0785 -2.0293 -3.4611 -2.5466 0.7433 6.0406 3.2398 -0.9786 -5.4609 -3.5075 -1.2512 -1.2820 0.5159 0.3510 -0.5061 2.0222 1.7719 1.3947 2.4406 0.4830 4.6922 3.4582 0.1653 -0.7861 0.6802 -0.1611 -3.2329 -3.9033 -1.8466 -2.1269 -2.5582 2.3637 4.1205 1.9910 -1.0183 -4.1029 -3.3538 1.2491 3.7345 2.8715 -2.9065 -1.1158 -1.6376
-0.4367 4.9640 3.1629 0.3832 -1.5151 0.5226 -2.6611 0.5839 -2.9975 -3.9566 -1.2309 -1.8547 -2.9286 -0.6303 1.5612 -2.0472 -0.0082 2.6259 0.3940 -0.1309 3.1550 -1.9986 -0.1016 -0.6234 -0.0639 -1.3841 -3.5795 1.6049 -5.0211 -4.0112 0.4860 -5.7214 -3.3036 2.7651 5.6654 1.7434 1.4678 -3.6879 -4.1068 2.4412 0.9250 2.1903 3.4221 4.3579 1.5391 3.1982 1.9651 1.7972 0.5911 2.3415 2.9321 -1.7400 -3.0459 -2.4434 1.5902 5.8858 2.2346 -0.5777 -5.1798 -2.7893 -2.0019 -1.1138 0.4545 -0.7111 -0.3885 2.2593 1.1095 1.1119 2.7474 0.8417 4.7843 2.6348 -0.6183 -1.0523 1.0496 0.3008 -3.0715 -3.5460 -1.5597 -1.7436 -2.7377 2.6798 3.3178 1.9377 -0.6288 -3.8219 -2.9407 1.3411 3.5257 2.5134 -2.6863 -0.5793 -2.1273
3.7657 1.6669 2.9214 -0.3000 -1.0401 1.2581 0.7607 -0.3269 -3.6779 -1.7136 0.0265 -3.7726 -2.7312 0.7127 -0.7053 -2.5770 1.5827 0.5256 -1.3671 1.3132 2.7031 -0.5303 0.0358 -1.5113 -2.1570 -3.1740 -3.6770 -1.2329 -6.9765 -2.7401 0.0515 -6.5969 -2.0692 3.7011 5.2384 2.9722 -1.9371 -5.9467 -3.2390 -0.8288 3.7587 2.7413 2.2774 5.6271 2.9089 0.0051 4.8130 2.7905 0.9799 2.1145 2.8016 0.1352 -3.0297 -2.4166 4.1893 4.0418 2.9787 0.5374 -5.4003 -1.9233 -1.6496 -0.3570 -0.6297 -1.6220 0.8895 1.3450 -0.3358 2.3886 2.7208 3.2938 2.9795 2.9202 -1.0876 -0.2455 0.7639 -1.4167 -4.6187 -3.0893 -0.7968 -2.2763 -3.0324 1.4407 4.5839 2.8527 -0.2497 -4.4210 -2.4620 1.9546 3.2044 2.8595 -0.5595 -0.5676 -3.1176
-0.2299 5.1097 2.9134 0.2124 -1.6242 0.7420 -2.7786 0.3460 -2.8818 -4.1419 -1.3305 -1.6141 -3.0508 -0.5774 1.7660 -2.1346 0.1333 2.7419 0.3106 -0.0137 3.2440 -2.1527 -0.1941 -0.4601 -2.1617 -3.7175 -2.5551 1.3491 -5.3337 -3.6740 2.0500 -4.0106 -3.7167 2.8766 5.5011 1.1940 0.0531 -5.2756 -3.3236 2.3470 0.8437 2.0808 3.4494 4.1462 1.0614 3.1243 1.8015 1.5441 0.6283 2.4187 2.8175 -0.5164 -1.6915 -2.7809 1.7575 5.8300 1.7507 1.5415 -2.8431 -3.4581 -2.1594 -1.1470 0.6712 -0.8160 -0.3155 2.3900 1.0686 1.1511 2.7045 0.9882 4.8114 2.3024 -0.7650 -1.0840 1.2410 -0.5267 -3.9968 -3.0340 -1.7897 -2.0069 -2.4730 2.6866 3.1884 1.6014 0.2190 -2.8875 -3.1154 1.4081 3.5198 2.2512 -2.8470 -0.7513 -1.9308
-1.0374 3.2868 4.5455 0.3679 -0.8278 2.1587 -3.2936 -1.6279 -0.5419 -1.6616 -2.9654 0.8034 1.4023 -0.4558 -1.2522 2.5035 0.2277 -0.4649 2.7303 0.9360 1.9285 -0.8474 -0.8899 -0.4656 -1.0949 -4.8369 -1.7791 -1.1415 -5.7871 -5.6896 -1.5882 -4.4225 -6.1131 -0.0247 6.5297 3.4406 -0.9518 -5.9376 -4.3679 2.9507 3.3793 1.4417 1.1415 6.3217 2.5583 2.6173 4.6753 1.5799 1.1658 2.5932 2.9167 -1.8724 -2.6570 -3.0035 -0.7132 5.6283 4.0593 -1.8318 -3.4042 -5.3431 0.5731 -1.2206 -0.2283 2.0052 0.2508 0.8826 2.2050 2.3195 2.1041 -0.3313 4.3005 3.8964 0.9239 -0.5861 1.0967 -1.2018 -4.8208 -3.5032 -1.6277 -3.1681 -1.7812 1.4834 5.0341 2.4194 -1.6142 -3.6546 -4.0158 0.7278 3.9749 3.1086 -1.9639 -2.1957 -0.3910
2.2246 2.0912 5.0953 2.1634 -0.2633 0.6157 -1.9150 -2.6741 0.7525 0.5028 -3.1047 0.2470 0.1665 0.5582 -2.2513 0.7023 1.8979 -1.7890 2.3237 2.6233 -0.0262 -0.5503 -0.8594 -0.4143 -2.4541 -2.5078 -2.7517 -2.7297 -5.3017 -5.6328 -1.6866 -6.1789 -5.0113 -0.0005 4.8530 5.5199 -2.9683 -4.1537 -4.9770 0.8145 4.4262 0.8391 -0.2670 5.3827 4.1669 0.1911 5.1170 1.8103 1.8412 2.8444 2.3939 -0.7326 -4.3645 -2.0750 0.7497 3.8495 5.8372 -1.0124 -5.9472 -3.9246 0.6190 -0.4784 -1.2323 1.4902 1.6039 -0.6242 1.6301 3.2560 1.1293 1.3888 3.1703 4.8062 1.5207 0.2666 -0.2801 -2.2326 -3.8785 -3.7781 -1.2381 -3.1795 -1.6807 0.3562 4.7053 3.1949 -1.3285 -4.7587 -3.3289 1.2093 3.5462 3.5119 -0.7782 -2.5412 -0.1428

>  <OB_ATOM_TYPES> (1f0rA1)
N.pl3 O.2 O.2 O.2 C.3 C.3 C.3 N.3 S.2 C.ar C.ar C.ar C.ar C.ar C.ar C.ar C.ar C.ar N.ar N.ar C.3 N.am C.ar C.ar C.2 C.ar C.ar C.ar C.ar C.ar S.O2

>  <ENSEMBLE_RMSD> (1f0rA1)
0.792 1.181 1.189 1.388 1.637 1.731 1.738 1.771 1.790 1.811 1.857 1.931 1.933 1.952 1.959 1.986 1.992 2.011 2.028 2.042 2.052 2.085 2.125 2.132 2.193 2.243 2.254 2.266 2.269 2.342 2.393 2.436 2.447 2.500 2.540 2.573 2.610 2.635 2.649 2.664 2.680 2.703 2.722 2.723 2.769 2.811 2.872 2.884 2.955 3.016

$$$$
