
 OpenBabel03071213D

 29 33  0  0  0  0  0  0  0  0999 V2000
    4.1840    5.3260   23.7370 O   0  0  0  0  0
    2.8170    1.7980   20.7620 O   0  0  0  0  0
    4.3660    1.8090   22.7100 O   0  0  0  0  0
    5.6910    5.3290   20.4780 C   0  0  0  0  0
    6.1760    6.6130   21.1040 C   0  0  0  0  0
    5.3970    7.9560   23.0940 C   0  0  0  0  0
    4.0380    3.7310   21.2460 N   0  0  0  0  0
    7.0010    7.4330   24.9230 N   0  0  0  0  0
    7.0600    1.6950   20.8240 S   0  0  0  0  0
    9.1560    0.3320   17.6010 C   0  0  0  0  0
    8.0090    0.0760   16.7810 C   0  0  0  0  0
   10.9160    8.7110   25.5940 C   0  0  0  0  0
    8.9380    0.8560   18.9180 C   0  0  0  0  0
   10.1640    9.1550   24.4650 C   0  0  0  0  0
    9.1030    7.3430   26.4150 C   0  0  0  0  0
    7.8360    8.8770   23.3640 C   0  0  0  0  0
    5.2240    1.0830   19.0410 C   0  0  0  0  0
   10.3610    7.8440   26.4980 N   0  0  0  0  0
    6.7310    0.3140   17.2280 N   0  0  0  0  0
    5.1980    4.5040   21.6700 C   0  0  0  0  0
    5.4360    6.6890   22.3610 N   0  0  0  0  0
    6.7390    8.0990   23.7830 C   0  0  0  0  0
    4.8530    5.5240   22.7290 C   0  0  0  0  0
    8.2870    7.7370   25.3130 C   0  0  0  0  0
    7.6060    1.0940   19.3540 C   0  0  0  0  0
    5.4170    1.5850   20.3580 C   0  0  0  0  0
    8.8340    8.6580   24.3270 C   0  0  0  0  0
    6.5230    0.8210   18.5140 C   0  0  0  0  0
    4.0940    2.1000   21.3290 S   0  0  0  0  0
  1 23  2  0  0  0
  2 29  2  0  0  0
  3 29  2  0  0  0
  4  5  1  0  0  0
  4 20  1  0  0  0
  5 21  1  0  0  0
  6 21  1  0  0  0
  6 22  1  0  0  0
  7 20  1  0  0  0
  7 29  1  0  0  0
  8 22  1  0  0  0
  8 24  1  0  0  0
  9 25  1  0  0  0
  9 26  1  0  0  0
 10 11  1  0  0  0
 10 13  2  0  0  0
 11 19  2  0  0  0
 12 14  2  0  0  0
 12 18  1  0  0  0
 13 25  1  0  0  0
 14 27  1  0  0  0
 15 18  2  0  0  0
 15 24  1  0  0  0
 16 22  2  0  0  0
 16 27  1  0  0  0
 17 26  2  0  0  0
 17 28  1  0  0  0
 19 28  1  0  0  0
 20 23  1  0  0  0
 21 23  1  0  0  0
 24 27  2  0  0  0
 25 28  2  0  0  0
 26 29  1  0  0  0
M  END
>  <MOLID> (1f0sA1)
1f0sA1

>  <SMILES_CANONICAL> (1f0sA1)
O=C1N(CC[C@@H]1NS(=O)(=O)c1sc2c(c1)nccc2)Cc1[nH]c2c(c1)ccnc2	

>  <FINGERPRINT> (1f0sA1)
0000000000000011000000001101101000010001100000001001010000000000000000010001000001001001000100000001000110111000000011100000000000000000000111001000000001100000001000000001000000010000000100000000010000000011100000000000000000100010000000000011000000001001000100000000000000000000010000000000000101000001100000011100000000000000001000010010101000000100011000000000000110110000100000000000011000000000100010100000011100000000110000100000000000000001100000001010011000000100010000000000001000000100100000010000010000011000000000000010000000010000000000100000000000100000100001100000100011100000000000000100000000000000000000010111111000000011111000000000010000000000000000000111100000001011100001101000100100100001100000000000000010000000101110100100000000000010001110000000001000010000000000000000000011100100000000000110000000001100100000000000000110000000010000001001000000000001000000000000110000001000000000000000110100000100001001000000011000001000000100010010000000000100000000100000001000000001110000010100011001100000

>  <MACCS166> (1f0sA1)
000000000000000000001000010000011001000000001000011000100111100110100000101101111010110101110111011001011100011100001111110110111110100111010110111101101111011010111000

>  <OB_MW> (1f0sA1)
427.077

>  <OB_logP> (1f0sA1)
3.6616

>  <OB_PSA> (1f0sA1)
144.67

>  <OB_MR> (1f0sA1)
113.779

>  <OB_ATOMIC_CHARGES> (1f0sA1)
-0.2732952454 -0.1510953725 -0.1510953725 0.0501736502 0.0958341042 0.1392783335 -0.0694135379 -0.2463876095 -0.0656504105 0.0211920952 0.0988624037 0.0989914479 0.0096179666 0.0222162049 0.1178698017 0.0180091608 0.0462150971 -0.2407412949 -0.243275012 0.1753682658 -0.2726556946 0.0791191588 0.2437250132 0.1000987504 0.0484233927 0.1545406252 0.0219457431 0.0891627014 0.0829656332

>  <MCT_HBD> (1f0sA1)
2

>  <MCT_HBA> (1f0sA1)
8

>  <ENSEMBLE_TOTAL> (1f0sA1)
50

>  <ENSEMBLE_COORDS> (1f0sA1)
-2.2930 0.0842 1.7518 -4.0054 -2.8470 -1.7961 -3.1142 -2.7009 0.5321 -1.8546 1.3640 -1.5555 -1.3888 2.5086 -0.6782 -1.5455 2.9500 1.7898 -3.1155 -0.6157 -0.9429 0.5883 2.1710 2.8890 -0.0008 -2.9319 -0.4351 2.8355 -3.8913 -3.1165 1.8804 -3.8842 -4.2704 4.3127 3.8605 2.8234 2.2868 -3.5961 -1.9264 3.2908 4.4698 2.1924 3.0646 2.1030 3.5582 0.6863 4.1508 1.7272 -1.2471 -3.0198 -2.7403 4.2378 2.6689 3.5225 0.6075 -3.6220 -4.2352 -1.8895 0.1457 -0.6452 -1.6641 2.0563 0.6601 -0.1130 3.1290 2.1316 -2.0168 0.7203 0.7455 1.8762 2.6694 2.9113 0.8839 -3.3087 -1.8670 -1.4436 -2.8003 -1.4256 2.0091 3.8278 2.2516 0.1427 -3.3321 -2.9823 -3.0105 -2.3294 -0.8698
-1.7732 -0.4522 1.9374 -3.9534 -1.9399 -2.4542 -3.4281 -2.5523 -0.0890 -0.6274 1.1187 -1.0507 -1.0710 2.2918 -0.1995 -1.4667 2.4820 2.2786 -2.5573 -0.3509 -1.0389 0.8953 2.2977 3.1555 -0.3549 -3.4970 -0.8242 2.3247 -4.9603 -3.4373 1.5227 -4.5495 -4.6340 3.9099 5.0624 3.0768 1.7759 -4.6443 -2.2527 2.6936 5.3847 2.5967 3.3316 2.9358 3.6516 0.2732 4.3222 2.2652 -1.3440 -2.9535 -3.1905 4.2685 3.8408 3.6179 0.3830 -3.9245 -4.6393 -1.2461 -0.1130 -0.4034 -1.3815 1.6902 1.0713 -0.1367 3.0663 2.5832 -1.5168 0.3138 1.0197 1.9694 3.1667 3.1599 0.5153 -3.9626 -2.2381 -1.5909 -2.8255 -1.8728 1.6786 4.3725 2.6536 -0.0915 -3.6435 -3.3887 -3.0023 -1.9766 -1.3543
-2.4201 1.0553 1.1938 -3.1096 -2.3549 -0.1157 -1.4089 -3.5466 1.2859 0.1030 0.3191 -1.2332 0.1033 1.8331 -1.1748 -0.8690 3.4735 0.4527 -0.8512 -1.2172 0.3820 -0.1825 3.3285 2.8712 0.4243 -4.3842 -1.3148 1.1419 -4.7282 -5.2609 -0.0183 -3.8608 -5.6417 3.3397 4.3912 4.6579 1.3043 -4.9072 -3.9392 3.1859 4.5574 3.3302 1.2568 3.5311 4.9848 1.3738 4.1775 1.4104 -1.4490 -2.9693 -2.4763 2.3911 3.8774 5.5239 -0.8653 -3.2866 -4.8401 -1.1828 -0.1122 -0.5401 -0.7718 2.1323 -0.0738 0.1243 3.6587 1.5374 -1.5528 1.0635 0.3319 0.9699 3.6656 3.5531 0.3791 -4.2829 -3.0383 -0.9991 -3.3601 -1.2676 1.9272 4.1673 2.7619 -0.6227 -3.5341 -3.5174 -1.7215 -2.6871 0.1568
-3.0256 1.8033 0.8404 -3.3291 -2.5199 -0.1802 -1.5486 -3.1003 1.4884 -0.9629 0.3488 -1.6813 -0.1698 1.5676 -1.2540 -0.7157 3.5459 0.1836 -1.5282 -0.7771 0.4102 1.5783 3.4629 1.2182 0.8572 -2.9329 -0.9770 1.8392 -4.0250 -4.7236 0.4135 -4.2098 -5.1437 2.6653 3.1889 5.1517 2.0081 -3.6405 -3.4474 1.3609 3.2374 4.8196 3.4135 3.3181 3.0045 -0.2036 3.4012 2.6666 -1.4275 -3.3673 -2.1856 3.7272 3.2273 4.2658 -0.6481 -4.0336 -4.4149 -2.0449 0.1458 -0.6261 -1.0164 2.2152 -0.2900 0.1780 3.4643 1.3639 -2.1282 1.4774 0.0766 2.0312 3.3833 2.5202 0.8493 -3.4476 -2.6252 -0.8965 -2.9871 -1.0080 1.0434 3.3391 3.4239 -0.3742 -3.6448 -3.1331 -1.9456 -2.4406 0.2564
-2.2259 -0.0180 1.7939 -3.9966 -2.9577 -1.7039 -3.0267 -2.7897 0.5927 -1.9397 1.3131 -1.5082 -1.4666 2.4570 -0.6330 -1.5468 2.8572 1.8459 -3.1274 -0.7070 -0.8766 0.6541 4.0760 1.8304 -0.0164 -3.2563 -0.4737 2.8190 -3.8316 -3.2647 1.8895 -3.5388 -4.4024 4.2735 2.9805 3.3887 2.2629 -3.7460 -2.0449 3.2106 2.1650 3.5266 3.1366 4.5820 2.2356 0.6198 2.0477 2.9070 -1.2191 -2.8282 -2.7621 4.2741 4.2070 2.7486 0.6320 -3.2185 -4.3282 -1.9072 0.0796 -0.6165 -1.6893 1.9810 0.7060 -0.1132 2.9601 2.2157 -2.0015 0.6346 0.7850 1.9126 3.7784 2.3149 0.8769 -3.3951 -1.9424 -1.4304 -2.8605 -1.4317 1.9687 2.6046 2.9578 0.1581 -3.1588 -3.0475 -2.9816 -2.4178 -0.8127
-1.6324 0.7830 1.8145 -3.0555 -3.0891 -0.0669 -0.7874 -2.4800 0.8121 -0.9957 1.0770 -1.6774 -0.6810 2.4675 -1.1593 -1.1803 3.6190 1.0074 -2.1293 -0.7459 -0.5309 -0.1484 3.3448 3.2822 -1.7124 -2.6595 -3.3342 0.6580 -4.9326 -5.6573 1.4530 -5.4525 -4.4991 3.6813 4.0383 4.5302 -0.3174 -4.0686 -5.3309 3.3235 4.3460 3.2685 1.6230 3.2722 5.1326 1.2048 4.2317 1.6522 -0.0670 -3.8462 -1.6760 2.8542 3.4939 5.4964 1.2893 -5.1644 -3.2422 -0.9834 0.1813 -0.4469 -1.0366 2.4065 0.2325 -0.0362 3.7589 1.9411 -1.2897 1.1239 0.6917 1.1098 3.5856 3.7954 -0.5091 -3.7324 -3.9504 -1.0865 -2.9671 -1.7252 1.9606 4.0962 2.8950 0.2743 -4.2779 -3.0111 -1.7835 -2.4097 -0.2442
0.2177 1.0173 -1.2538 -3.1645 -2.6026 -0.1191 -1.2210 -3.1710 1.3580 -3.1405 0.8998 -0.0250 -2.6223 2.2249 0.4993 -0.5423 3.5535 0.0884 -1.4574 -0.7851 0.4748 -0.1136 3.6532 2.5713 0.9240 -2.5889 -1.3450 1.7075 -4.1677 -4.9637 0.2921 -4.6067 -5.1820 3.3902 3.2039 4.6322 1.9334 -3.5459 -3.7942 3.3916 3.1352 3.2872 1.1494 3.5734 4.8021 1.7088 3.2803 1.2238 -1.3699 -3.5274 -2.1943 2.2807 3.4206 5.4298 -0.7128 -4.4449 -4.3737 -1.9350 0.1453 -0.5710 -1.2895 2.3229 -0.0280 0.3658 3.4833 1.2583 -0.8506 1.1867 -0.6834 1.0251 3.5289 3.3421 0.8379 -3.3607 -2.8875 -0.7966 -2.8744 -1.1656 2.1319 3.3055 2.6214 -0.3841 -3.8015 -3.2130 -1.7560 -2.4575 0.2106
-2.1873 0.0865 1.7073 -4.1238 -2.8505 -1.6675 -2.8919 -2.7105 0.4994 -2.0932 1.4446 -1.5904 -1.6133 2.5979 -0.7308 -1.5660 2.9786 1.7529 -3.1883 -0.6104 -0.9193 0.5005 2.2029 2.9773 -1.3911 -3.5127 -3.2761 2.5974 -3.9587 -3.6443 2.8845 -3.3240 -2.3189 4.3504 3.5719 2.7068 1.2958 -4.0237 -3.9730 3.3773 4.1588 1.9845 2.9665 2.0489 3.6848 0.7562 3.9815 1.5459 -0.3790 -2.5441 -1.0659 4.1805 2.5105 3.5775 2.0173 -2.8610 -1.4689 -1.9774 0.2054 -0.7141 -1.7364 2.1030 0.6144 -0.1218 3.0914 2.0782 -2.0149 0.7495 0.6951 1.8238 2.6016 2.9496 0.3234 -3.5099 -3.0518 -1.5480 -2.7636 -1.6984 2.0485 3.6367 2.1293 0.7216 -2.9830 -1.8871 -3.0112 -2.3176 -0.8963
0.5187 -0.0079 -0.7751 -3.7721 -2.3021 -0.6172 -2.4376 -3.3692 1.2156 -2.7560 1.2209 -0.0070 -1.9491 2.4816 -0.2417 0.5148 2.9260 -0.3994 -1.8718 -0.9779 0.5023 1.7118 2.3318 1.7384 0.2488 -3.7407 -0.7323 1.8424 -4.3458 -4.3782 0.6307 -3.8347 -5.0954 2.2673 4.5646 5.1194 1.7580 -4.3231 -3.0374 1.5505 5.0675 4.0960 2.6926 2.5756 4.0955 0.7222 4.4034 1.6499 -1.5911 -2.9538 -2.4237 2.8576 3.3144 5.1559 -0.4658 -3.3859 -4.5610 -1.8965 0.0779 -0.5310 -0.5983 2.0067 -0.3673 0.9454 3.2405 0.9835 -0.4958 0.6411 -0.5645 1.9272 3.0085 2.9226 0.5558 -3.8332 -2.4290 -1.3381 -3.0960 -1.1083 1.3800 4.2312 2.9423 -0.4572 -3.4061 -3.1941 -2.4944 -2.5154 0.0413
-0.3900 1.1095 -1.0286 -4.1642 -2.2430 -2.0397 -3.0658 -3.2002 -0.0002 -2.0262 -0.4735 1.7400 -2.1073 1.0028 2.0746 -1.0578 3.0572 1.1022 -2.7072 -0.7260 -0.5827 0.2447 3.4025 3.2298 -1.0814 -1.8415 -3.5446 2.0647 -4.0496 -4.7471 1.9414 -5.0143 -3.6087 4.2025 4.2908 3.7524 1.1606 -3.0556 -4.7490 3.7151 4.1102 2.5098 2.2128 3.9195 4.7924 1.4247 3.5498 1.2641 -0.8889 -3.7807 -1.7934 3.4762 4.2061 4.9260 1.0631 -4.9880 -2.6508 -1.5334 -0.5621 0.3017 -1.3192 1.6380 1.0543 0.2098 3.3135 1.8255 -0.9956 0.8133 -0.0087 1.5684 3.6929 3.4964 0.1856 -3.0060 -3.6974 -1.6224 -2.6968 -2.1116 2.3194 3.7953 2.3916 0.1848 -3.9451 -2.7423 -3.0143 -2.3190 -1.1560
0.2318 0.8305 -1.2394 -3.5098 -2.4060 -0.4428 -1.9652 -3.0761 1.4093 -3.2072 1.0718 -0.2603 -2.6115 2.3822 0.2142 -0.3965 3.4986 -0.0992 -1.7246 -0.7465 0.3870 1.7326 3.0398 1.1544 0.4626 -3.8097 -0.6459 1.9690 -4.5404 -4.3056 0.8346 -3.8613 -5.0103 2.5822 3.4737 5.1312 1.8885 -4.5322 -2.9647 1.3510 3.7704 4.6730 3.4018 2.8723 3.0939 -0.0392 3.8069 2.3980 -1.2665 -2.7748 -2.3180 3.6417 3.0206 4.3659 -0.1951 -3.2861 -4.4653 -2.0424 0.1973 -0.7061 -1.2385 2.3308 -0.2054 0.3857 3.4476 1.1584 -0.8574 1.1266 -0.7685 2.1022 3.1581 2.4791 0.7619 -3.8988 -2.3444 -1.0359 -2.9765 -1.0060 1.1146 3.6007 3.2681 -0.1884 -3.3320 -3.0990 -2.1822 -2.3875 0.1483
-2.0527 1.6617 -0.2481 -3.1424 -0.7014 -2.3397 -4.0464 -2.7778 -1.2696 -0.2975 -1.1021 1.2117 -0.5068 -0.1554 2.3765 -1.2816 2.2230 2.5522 -2.4107 -1.3074 0.0351 0.8214 2.8776 3.7655 -0.9113 -4.2217 -1.3901 1.9575 -5.2564 -4.0192 1.6528 -4.1169 -4.9429 3.7525 5.5247 2.7018 1.1902 -5.3126 -2.9172 2.6957 5.3339 1.8876 3.0418 4.0523 4.2851 0.4463 3.9061 1.7468 -1.0643 -2.4431 -3.3078 3.9605 4.8999 3.9177 0.7351 -3.2087 -4.7915 -1.1357 -0.5598 0.0611 -1.0648 1.0249 1.7759 -0.0207 2.9976 2.6434 -1.4897 0.8492 0.4711 1.8451 3.7615 3.4892 0.1762 -4.3160 -2.7293 -1.6201 -2.8020 -2.1348 1.6988 4.3949 2.3181 0.0046 -3.3532 -3.6447 -2.9339 -1.8729 -1.5039
-0.9356 1.5008 -0.8660 -3.8959 -2.3910 -2.3156 -3.2539 -2.9905 0.0291 -3.0772 -0.0325 1.5379 -2.6019 1.2149 2.2540 -1.4436 3.2863 1.4587 -2.8795 -0.5936 -0.8208 1.0246 3.5617 1.0791 0.0680 -2.7242 -0.7513 2.8590 -4.0721 -3.3172 1.8799 -4.2441 -4.4378 4.1277 3.3845 3.7353 2.3316 -3.6137 -2.1695 2.8631 3.2325 4.1732 3.5410 3.6722 1.5539 0.3620 3.1974 3.2481 -1.2184 -3.1722 -2.9882 4.5081 3.6097 2.4245 0.6046 -3.9945 -4.4101 -2.1068 -0.2260 0.3810 -1.8275 1.9081 1.2609 -0.0502 3.3464 1.9616 -1.5554 1.1565 0.1296 2.1268 3.5244 1.9087 0.9259 -3.3353 -2.1187 -1.3867 -2.7184 -1.7312 1.8169 3.3111 3.1943 0.1638 -3.5287 -3.2028 -2.9701 -2.2696 -1.2008
0.0998 0.4751 -0.5161 -4.0806 -2.3018 -1.9743 -3.0246 -2.9419 0.2096 -2.8642 0.5779 1.4776 -2.5924 2.0403 1.1835 -0.6009 3.2520 0.2686 -2.7619 -0.5406 -0.6733 1.7198 2.9281 1.1842 -0.7522 -1.7005 -3.1576 2.2754 -4.0960 -4.2922 1.8904 -5.1884 -3.3426 3.2513 3.9198 4.8436 1.4868 -3.0089 -4.2547 1.9685 4.2109 4.5539 3.6884 2.9556 2.8266 0.2123 3.9804 2.5621 -0.9849 -3.8486 -1.6770 4.1479 3.2900 3.9989 0.8984 -5.1843 -2.5031 -1.9720 -0.2189 0.5332 -1.3343 2.0272 0.4897 0.4094 3.4182 1.3409 -0.9246 0.7700 0.0823 2.3115 3.2163 2.3970 0.3823 -2.9888 -3.3414 -1.5269 -2.6350 -1.8930 1.4893 3.8349 3.2547 0.1573 -4.0365 -2.5380 -2.9695 -2.2067 -1.0431
-2.5437 1.3129 0.7214 -2.4155 -2.1928 0.2313 -0.2229 -2.9232 1.2035 -0.0405 0.8990 -1.8017 0.2946 2.2479 -1.1947 -0.8611 3.7406 0.4543 -0.3739 -0.6460 0.0474 1.3040 4.0150 1.7114 1.1225 -3.0274 -2.0144 0.6333 -5.1242 -5.4156 -0.8391 -5.3006 -5.2054 2.1097 3.4690 5.6839 1.2624 -4.4266 -4.4549 0.8554 3.2937 5.2254 2.9810 4.0154 3.6520 -0.5330 3.4112 2.9512 -1.4319 -3.6037 -2.1023 3.2060 3.8313 4.9219 -1.5470 -4.8608 -4.2079 -1.0776 0.2579 -0.8888 -0.7389 2.4689 -0.2206 -0.0717 3.7155 1.7097 -1.5766 1.3865 -0.0234 1.6593 3.8611 3.0367 0.4987 -3.9326 -3.3463 -0.5038 -2.9691 -1.3610 0.6349 3.5049 3.8230 -0.8186 -4.1656 -3.2828 -0.9661 -2.2583 0.1467
-1.7184 1.7727 -0.6596 -3.8208 -1.8745 -2.8498 -3.8155 -3.1209 -0.6840 -2.5696 -0.8075 1.6454 -2.0285 0.2846 2.5474 -1.5439 2.7131 2.1496 -3.1781 -0.6572 -0.7091 0.7240 2.6692 3.2409 -0.6017 -3.6331 -0.7631 2.9763 -3.7343 -2.5906 2.5238 -2.8738 -3.7303 4.3724 3.7218 1.7219 2.0387 -3.9778 -1.6602 3.2687 3.8516 0.9612 3.2609 2.9038 3.5341 0.6354 3.4669 1.0886 -0.9004 -2.1703 -2.9175 4.4075 3.2521 3.0228 1.3462 -2.3499 -3.9001 -2.0779 -0.4498 0.2496 -1.7959 1.3825 1.6482 -0.0848 2.9752 2.1310 -1.8648 1.0405 0.3082 1.9928 2.9958 2.8050 0.7330 -3.4120 -1.8320 -1.5645 -2.6413 -1.8435 2.0187 3.4684 1.5518 0.4622 -2.6528 -2.9016 -3.1957 -2.1430 -1.5643
-1.4128 -0.1440 1.6559 -3.6844 -1.9409 -2.6141 -3.8001 -3.4859 -0.6508 -3.3008 1.3147 -0.9766 -2.6712 2.5245 -0.3132 -1.5520 2.8287 1.9048 -3.3238 -1.0129 -0.2560 0.6617 2.1235 2.8533 -0.5525 -3.7857 -0.4708 3.1899 -3.2778 -1.8568 2.7791 -2.2482 -2.8640 4.4553 3.0091 1.6181 2.1887 -3.7681 -1.1072 3.4022 3.5874 1.0093 3.1938 1.8242 3.0978 0.7372 3.5994 1.0954 -0.7640 -2.0012 -2.3763 4.3900 2.1159 2.6725 1.5776 -1.8054 -3.0869 -2.4467 0.1404 -0.5249 -1.9926 1.9716 0.8279 -0.0703 2.8901 1.9273 -1.8994 0.5884 0.8072 1.9735 2.4058 2.5319 0.8571 -3.2892 -1.3351 -1.4861 -2.6941 -1.4737 2.0967 3.2556 1.5037 0.6277 -2.3699 -2.2814 -3.1737 -2.3558 -1.3176
-1.5375 -0.1170 1.8877 -3.6700 -1.8491 -2.5411 -3.7378 -3.4507 -0.6199 -3.1505 1.3374 -0.9202 -2.5296 2.5417 -0.2383 -1.5577 2.8614 2.0481 -3.2867 -0.9818 -0.1771 0.7291 3.4366 1.1381 -0.2766 -2.8589 -0.1840 3.1726 -3.3101 -2.2107 2.5075 -3.2224 -3.5494 4.4209 2.6264 2.7040 2.3442 -3.2053 -1.1578 3.3130 2.2865 3.3902 3.2858 3.5320 0.9489 0.6580 2.3806 3.1768 -0.9453 -2.7423 -2.7135 4.4464 3.2529 1.4709 1.2402 -3.0550 -3.7847 -2.3664 0.1502 -0.3839 -1.9601 1.9946 0.9640 -0.0781 2.8876 2.1536 -1.9207 0.6093 0.9828 2.0115 3.2272 1.6064 0.9417 -3.0275 -1.3966 -1.4515 -2.6519 -1.4686 2.0481 2.6078 2.7937 0.4800 -2.9614 -2.6521 -3.1305 -2.2991 -1.2674
0.2025 0.3266 -0.9377 -4.1468 -2.6429 -1.1299 -2.4335 -3.3446 0.5562 -1.9816 0.0466 1.8785 -1.9300 1.5402 1.6253 -0.3832 2.9732 0.2596 -2.4699 -0.9139 -0.3013 0.1435 3.9616 2.5093 -2.1460 -3.4156 -3.5430 1.3985 -4.3133 -5.2223 2.1702 -4.0220 -3.9720 3.7179 4.2865 4.4622 0.0709 -4.1324 -5.1228 3.6801 3.7666 3.2201 1.4728 4.6439 4.5893 1.9308 3.1882 1.2900 -0.3802 -3.0592 -1.6420 2.6275 4.7363 5.1851 1.6929 -3.6273 -2.8293 -1.3760 -0.6098 0.6435 -0.9323 1.6803 0.5983 0.5856 3.3804 1.3056 -0.5893 0.4926 -0.0211 1.3063 4.1055 3.2365 -0.4742 -3.6926 -3.8716 -1.7001 -2.9866 -1.9032 2.3960 3.6767 2.5860 0.3342 -3.4733 -2.8266 -2.7865 -2.5716 -0.6228
-0.1847 0.5634 -1.0970 -4.3312 -2.2983 -1.9728 -3.2625 -3.1073 0.1441 -2.4504 0.0626 1.6375 -2.2421 1.5637 1.6150 -0.6521 3.0732 0.3976 -2.8521 -0.6899 -0.6416 1.6776 2.7324 1.3002 -1.5016 -2.4560 -3.6787 2.1721 -3.9900 -4.2698 2.3215 -4.4253 -2.8443 3.4251 4.2895 4.6539 1.0109 -3.3776 -4.5558 2.1661 4.6422 4.3304 3.7040 2.9127 2.8615 0.3128 4.1587 2.4752 -0.7727 -3.4051 -1.3485 4.2298 3.4192 3.9406 1.4585 -4.2761 -1.8840 -1.7985 -0.4833 0.3740 -1.2218 1.7653 0.6232 0.4099 3.3373 1.3973 -0.9562 0.6513 -0.1522 2.3498 3.2307 2.3984 0.0467 -3.2015 -3.5091 -1.7914 -2.7933 -1.9830 1.6113 4.0694 3.1374 0.3092 -3.6464 -2.2734 -3.1880 -2.3215 -1.0761
0.1205 0.2886 -0.9646 -3.6953 -2.6252 -0.0919 -1.8188 -3.5282 1.3009 -3.0831 1.0103 0.4670 -2.4982 2.3810 0.1953 -0.1783 3.1686 -0.3200 -1.8225 -1.0464 0.6753 0.1954 3.7083 2.1141 -1.9611 -2.8739 -2.8399 1.3885 -3.3708 -5.0133 2.2623 -3.5163 -3.8057 3.4706 3.0211 4.4645 0.0843 -3.1846 -4.7493 3.4816 2.6383 3.1732 1.3587 3.8712 4.3935 1.9249 2.6758 1.0092 -0.0451 -3.1885 -1.0816 2.4204 3.6452 5.1139 1.8913 -3.4828 -2.5604 -2.1934 0.0223 -0.2764 -1.1526 2.1067 -0.2259 0.6650 3.1725 0.8998 -0.9138 0.7799 -0.5351 1.2487 3.4956 2.9808 -0.3446 -3.1455 -3.3817 -1.3720 -2.9819 -1.1922 2.2996 2.8988 2.4026 0.5476 -3.2933 -2.3940 -2.2808 -2.6469 0.2419
0.2774 0.8017 -0.9894 -4.1029 -2.2866 -1.4527 -2.6004 -3.0057 0.4159 -2.0465 0.1341 1.6438 -2.0741 1.6457 1.5326 -0.5542 3.2850 0.3916 -2.3164 -0.6697 -0.6392 1.6514 2.9776 1.5769 -2.0386 -3.4114 -3.6486 1.4458 -4.9251 -4.9651 2.1509 -4.6800 -3.6663 3.0032 4.6845 5.0371 0.1579 -4.5441 -4.9897 1.7875 5.0132 4.5599 3.4764 3.2165 3.3614 0.1682 4.4603 2.5162 -0.3958 -3.1989 -1.6184 3.8811 3.7825 4.4628 1.6516 -4.1498 -2.5895 -1.3158 -0.3727 0.4050 -1.0462 1.9394 0.5711 0.3955 3.6080 1.4833 -0.5793 0.8345 -0.1176 2.1765 3.4944 2.7439 -0.4097 -3.9546 -3.8127 -1.6647 -2.9511 -1.9992 1.3659 4.3745 3.3463 0.3373 -3.7933 -2.7129 -2.7819 -2.3090 -0.8466
-1.1025 0.7032 -1.1308 -3.9273 -2.9757 -2.1172 -3.4120 -3.3466 0.3058 -3.5156 0.2841 1.4510 -2.8050 1.5604 1.8603 -1.2485 3.0929 0.6276 -3.3700 -0.9599 -0.6369 0.4768 3.1208 2.4644 -0.1837 -3.1802 -0.1837 3.1417 -2.3852 -2.3033 2.3782 -1.9915 -3.5302 4.4987 2.4020 2.2699 2.3827 -2.7729 -1.2649 3.7662 2.4167 1.1398 2.7413 2.8683 3.6421 1.2480 2.7482 0.3328 -1.0401 -2.3975 -2.5320 4.0177 2.6242 3.5477 1.0874 -1.9815 -3.6814 -2.5733 -0.3915 0.4668 -1.8963 1.8092 0.7736 0.1543 2.9979 1.0997 -1.7745 0.7504 -0.1114 1.8444 2.9292 2.4839 0.9570 -2.7744 -1.4140 -1.4662 -2.8077 -1.3212 2.3645 2.6939 1.2717 0.4029 -2.3950 -2.5726 -3.1468 -2.6419 -0.9374
-1.3018 0.7382 -1.5944 -3.6109 -2.5883 -0.8942 -2.4516 -3.3409 1.2003 -3.9715 1.1721 0.7256 -3.0128 2.2889 1.0965 -0.9665 3.2212 -0.0111 -2.6026 -0.8312 0.7000 0.4179 3.3086 2.0904 0.5177 -1.8884 -0.0985 3.0295 -2.3734 -3.2039 1.9760 -2.9734 -4.0836 4.0139 1.5478 2.9266 2.6113 -2.0266 -1.9752 3.4605 1.3935 1.7084 2.3327 2.8541 3.7358 1.2950 2.1176 0.3331 -0.9498 -2.9144 -2.0135 3.4776 2.2786 3.9717 0.7259 -3.1704 -3.7875 -3.1894 0.2152 -0.1667 -1.9516 2.1743 0.1345 0.2489 2.8711 0.7632 -2.0274 1.0438 -0.6592 1.6338 2.7617 2.4504 1.2392 -2.2502 -1.6245 -1.0096 -2.4579 -0.7481 2.2037 2.0446 1.4729 0.3962 -2.7833 -2.5185 -2.5343 -2.4330 0.0692
-0.7346 -0.8799 1.3228 -3.4317 -0.6293 -2.9764 -4.0468 -2.8215 -1.9354 -3.0044 1.3900 -0.2451 -2.4109 2.2166 0.8769 -1.0871 1.5982 2.9117 -2.9421 -1.0243 -0.4857 0.3242 3.6691 2.6560 -0.3553 -1.5784 -3.4730 2.7142 -4.1798 -3.3441 2.0019 -5.1168 -2.4173 4.3895 4.0957 2.8252 2.0198 -3.0788 -3.6780 3.8383 2.8726 2.9445 2.3992 5.1756 2.5731 1.4476 1.6902 2.9680 -1.1420 -3.4792 -1.8522 3.6968 5.2782 2.6348 0.8168 -4.9631 -1.9049 -2.0911 0.1797 -0.3906 -1.5739 1.2889 1.5884 0.2296 2.2745 2.8216 -1.3861 0.0817 0.9390 1.6855 3.8993 2.6846 0.7050 -2.8984 -3.1339 -1.5434 -2.3266 -2.4241 2.4080 2.7862 2.8672 0.1924 -3.8110 -2.2980 -3.1197 -1.7093 -2.0550
-1.3448 1.2929 -0.9941 -4.0575 -2.1531 -2.7754 -3.5586 -3.2458 -0.5794 -3.1655 -0.3122 1.6135 -2.5352 0.8735 2.3197 -1.4115 2.9452 1.4712 -3.3487 -0.7039 -0.7866 0.5645 2.7321 3.0203 -0.7826 -1.4867 -3.3203 3.0372 -2.7304 -2.9772 2.7277 -3.6685 -1.8521 4.5621 2.9916 2.1904 1.9829 -2.0461 -3.4535 3.6613 3.1741 1.2060 3.0020 2.6500 3.8141 1.0263 3.1695 0.8124 -0.7911 -3.2257 -1.3629 4.2676 2.7296 3.5163 1.5706 -3.8646 -1.2932 -2.3896 -0.4673 0.3127 -1.8710 1.5908 1.2664 0.0473 2.9431 1.7282 -1.8145 0.9054 0.0650 1.9282 2.8387 2.8341 0.6955 -2.2543 -2.8554 -1.5951 -2.4074 -2.0658 2.2735 3.0844 1.5634 0.5626 -3.1235 -1.8448 -3.2435 -2.2314 -1.5729
-0.9686 0.6375 -1.0999 -3.9402 -2.9698 -2.0494 -3.4916 -3.1774 0.4063 -3.6435 0.5603 1.2495 -2.9096 1.8359 1.6171 -1.1540 3.1761 0.4294 -3.3730 -0.8636 -0.7051 1.2777 2.5285 0.3708 -0.2427 -3.0776 -0.0092 3.1389 -2.6394 -2.1459 2.4075 -2.3373 -3.4175 4.1013 2.6843 3.3230 2.3525 -2.8755 -1.0824 2.8606 3.1527 3.5586 3.6716 2.0801 1.1698 0.5044 3.4249 2.3392 -1.0374 -2.5013 -2.4382 4.5458 2.1337 2.1342 1.1201 -2.2815 -3.5874 -2.6512 -0.2422 0.4216 -1.8845 1.9429 0.6135 0.1795 3.0662 1.0694 -1.7361 0.8058 -0.1638 2.2978 2.5754 1.2991 0.9292 -2.8244 -1.2512 -1.4954 -2.7860 -1.2032 1.9175 3.0824 2.4792 0.4057 -2.5427 -2.4512 -3.1822 -2.5679 -0.8762
-0.8065 0.5653 -1.6735 -3.8842 -2.5178 -0.4873 -2.3414 -3.1816 1.3721 -3.6515 1.2959 0.3634 -2.7045 2.4423 0.6642 -0.5402 3.1978 -0.3554 -2.3542 -0.7469 0.5778 1.3836 2.0178 0.7716 -1.5640 -3.1569 -2.6610 2.2116 -3.2447 -4.0491 2.8086 -2.9101 -2.7168 3.3211 2.9363 4.2540 0.8717 -3.3430 -4.0605 2.3318 3.7342 3.8083 3.1825 1.4715 2.5158 0.5944 3.9178 1.7939 -0.0603 -2.6012 -0.5894 3.7745 1.7864 3.6328 2.1733 -2.7084 -1.6009 -2.8418 0.2532 -0.3972 -1.5751 2.2039 -0.1921 0.4509 3.0725 0.7401 -1.6109 0.9930 -0.8581 2.1040 2.2679 1.9225 0.1532 -3.1275 -2.8385 -1.3441 -2.7460 -0.9726 1.6953 3.3631 2.5768 0.8165 -2.8326 -1.7129 -2.5942 -2.4022 0.1719
-1.0739 -0.7335 1.5117 -3.6234 -1.3578 -2.8331 -4.0755 -3.3052 -1.3277 -3.2472 1.3041 -0.4501 -2.6110 2.3010 0.4977 -1.3125 2.0154 2.6200 -3.2430 -1.1188 -0.3024 0.4702 3.6387 1.8758 -0.8724 -4.0394 -1.0044 2.9727 -3.8165 -2.1802 2.7393 -2.6008 -3.0239 4.5381 3.3715 2.2153 1.8811 -4.2860 -1.5530 3.7604 2.3763 2.6830 2.7974 4.6422 1.4740 1.1875 1.7081 2.8921 -0.7633 -1.9634 -2.5944 4.0891 4.5257 1.5975 1.6155 -1.9718 -3.2011 -2.3653 0.0649 -0.3849 -1.8109 1.4859 1.3715 0.1075 2.4142 2.4691 -1.6755 0.1723 0.9533 1.8492 3.6279 1.9470 0.6303 -3.6075 -1.7378 -1.6146 -2.6903 -1.8443 2.3415 2.5269 2.5310 0.5643 -2.5268 -2.5260 -3.2554 -2.1572 -1.6757
0.2765 -1.0721 1.0333 -3.1704 -0.5288 -2.6379 -4.2263 -2.4683 -1.4533 -2.1650 1.3279 -0.0120 -1.9997 1.6163 1.4659 -0.2528 0.9489 3.1388 -2.4695 -1.0792 -0.2149 0.2307 3.4073 3.3613 -1.6744 -4.4247 -2.0217 1.8800 -5.3468 -3.6673 2.1817 -3.9276 -4.0391 3.6219 5.5042 2.4548 0.7037 -5.5313 -3.0449 3.6011 4.1664 2.2998 1.4761 5.6429 3.2049 1.9572 2.0897 2.6121 -0.7054 -2.1469 -2.8782 2.5718 6.2822 2.9088 1.4343 -2.8854 -3.8275 -1.4630 0.0003 -0.2671 -0.9120 0.7654 1.8664 0.6701 2.1068 3.0479 -0.5806 -0.2052 0.9387 1.3335 4.1891 3.0822 -0.1338 -4.3935 -2.8003 -1.7748 -2.6925 -2.2667 2.3836 3.4862 2.6379 0.2586 -3.1746 -3.1925 -3.0531 -1.6568 -1.7295
-2.8374 1.0166 1.0013 -2.6411 -0.0303 -3.3177 -3.3801 -1.5568 -1.4753 0.2598 -0.7229 0.6068 0.3349 -0.1923 2.0246 -1.0019 1.5492 3.2567 -1.2831 -0.0843 -1.1538 1.2301 2.4855 3.9241 -0.6886 -2.3016 -4.5159 1.2844 -5.8071 -4.5166 0.9955 -6.0771 -3.0721 3.0536 5.9678 2.8027 0.7922 -4.6479 -4.9844 1.7905 5.7173 2.4077 3.2722 4.0323 3.9814 -0.0764 3.8214 2.5872 -0.9341 -3.2216 -2.0754 3.8337 5.1408 3.5903 0.3291 -5.3217 -2.2504 -1.2072 -0.6076 0.2222 -0.8079 0.6789 2.1193 0.0080 2.6333 3.2411 -1.7454 0.4801 1.1203 1.8936 3.6631 3.6440 0.0568 -3.7996 -4.0927 -1.2877 -2.1933 -2.8717 1.1949 4.4902 2.8547 -0.1325 -4.1668 -2.8187 -2.3059 -0.9456 -2.2399
1.5451 -0.4486 0.2420 -3.3868 -2.1058 -0.3388 -1.9451 -3.5687 1.0926 -1.6532 1.0038 -0.3747 -0.7049 2.1707 -0.5686 1.7002 2.5043 0.0857 -1.1913 -1.1883 0.5768 0.9994 4.3663 1.6201 0.4550 -3.5339 -1.4934 0.8445 -4.5179 -5.3776 -0.6180 -4.3636 -5.6607 1.1507 4.5960 5.6992 1.2047 -4.2716 -4.1068 1.6571 3.5175 5.0713 0.5108 5.6498 3.7839 1.9733 2.5371 2.6122 -1.9625 -3.3742 -2.4885 0.5665 5.6893 5.0848 -1.5466 -4.0190 -4.8191 -0.7719 -0.2337 -0.4665 0.5671 1.6406 -0.1534 1.5907 3.1025 1.4371 0.5956 0.2599 -0.0587 1.0405 4.5381 2.9889 0.1937 -3.8983 -3.1613 -1.2595 -3.1928 -1.3543 1.5897 3.5029 3.6380 -1.0826 -3.7929 -3.5530 -2.0621 -2.5694 0.0431
-3.1225 1.3387 1.3159 -3.2239 -0.3728 -3.1078 -3.6066 -2.0819 -1.3161 -0.4549 -0.9767 0.8045 -0.1964 -0.4592 2.2040 -1.0597 1.5588 3.4321 -1.9756 -0.1238 -0.8848 0.1227 3.4215 2.2095 -0.4418 -1.7718 -4.0795 2.1611 -4.8395 -4.2097 1.6576 -5.4426 -2.9344 3.9280 4.8407 2.6885 1.5409 -3.7080 -4.5843 3.4701 3.8675 3.4993 2.0002 5.0117 1.4880 1.2819 2.4006 3.9103 -0.9661 -3.2056 -1.9514 3.2176 5.4408 1.6641 0.7009 -4.9929 -2.1782 -1.9015 -0.6043 0.5086 -1.1502 0.6092 2.3466 0.1091 2.4470 3.2257 -2.1616 0.5879 1.4000 1.3870 3.9661 2.3122 0.4868 -3.1924 -3.7598 -1.3563 -2.1036 -2.6211 2.1248 3.4162 3.2859 0.1321 -3.8393 -2.6420 -2.7036 -1.1921 -2.0263
1.6148 0.3166 -0.3977 -2.1308 -2.6233 0.9654 0.2797 -1.9966 1.1478 -1.5354 1.2815 -1.7672 -1.0314 2.5626 -1.1291 1.1798 3.2367 -0.1617 -1.3313 -0.4319 -0.0581 1.7074 2.6170 2.2225 0.9713 -3.4306 -1.6632 0.1317 -5.1026 -5.2251 -1.3373 -4.8334 -5.1105 0.4129 4.3109 5.7121 0.8676 -4.6791 -4.1840 -0.0102 4.8033 4.5321 1.7058 2.6818 4.7870 0.2723 4.3838 1.9131 -1.6232 -3.1928 -1.9354 1.2758 3.2434 5.8808 -1.9530 -4.2464 -4.1278 -0.6532 0.1596 -1.2326 0.2669 2.2162 -0.6196 1.0217 3.4306 1.2998 0.5663 0.8690 -0.6989 1.3180 3.1272 3.4448 0.2064 -4.0303 -3.0895 -0.6080 -2.9322 -1.0888 0.4766 4.1643 3.3426 -1.1210 -3.8549 -3.1161 -0.9401 -2.0502 0.3574
-1.1675 -0.8050 1.0460 -3.3667 -0.7346 -3.3918 -4.0179 -2.8271 -2.1809 -3.2720 1.6352 -0.4831 -2.6167 2.4085 0.6444 -1.2944 1.6827 2.6486 -3.3261 -0.7680 -0.8296 1.1716 1.3289 2.2701 -0.2026 -1.4746 -3.2358 3.0436 -3.3375 -1.7554 2.2455 -4.1665 -0.7969 4.1970 4.0701 2.0449 2.3192 -2.5108 -2.5285 2.9415 4.4798 2.3094 3.6525 1.8632 1.9060 0.4815 3.4943 2.6052 -1.1267 -3.1314 -1.4303 4.5930 2.7616 1.8333 0.9542 -4.1681 -0.6483 -2.4213 0.3863 -0.6644 -1.8413 1.4163 1.3385 0.0899 2.1965 2.5153 -1.7423 0.2070 0.6718 2.2531 2.1837 2.2030 0.8929 -2.4987 -2.3799 -1.5130 -2.1983 -2.3223 1.9251 3.4696 2.3857 0.3054 -3.3024 -1.4838 -3.1575 -1.6607 -2.2913
-0.7241 -0.6211 1.5546 -1.1032 0.7227 -3.5981 -3.0089 -0.7260 -2.8680 -3.6220 0.8844 0.1017 -3.2586 1.8419 1.2196 -1.6455 1.7460 3.1250 -1.5506 0.4629 -1.1075 0.8601 1.6565 3.2307 0.9321 -1.7619 -3.4789 2.0979 -5.5026 -2.5776 0.8968 -5.7717 -1.7240 3.6514 4.3836 2.0168 2.1370 -4.2783 -3.1292 2.3407 4.6673 1.8906 3.3148 2.3228 2.9247 -0.0496 3.5864 2.3797 -0.9537 -2.7059 -1.9237 4.1803 3.2141 2.5331 -0.0859 -4.9588 -1.4723 -2.4423 -0.0677 -0.0542 -2.1447 1.2163 1.8758 -0.3143 2.3654 2.9151 -1.6495 0.1037 1.2163 1.8645 2.5173 2.8401 1.0639 -3.3668 -2.8606 -0.5887 -1.6119 -2.6205 1.4083 3.6700 2.3329 0.0446 -3.7390 -2.0757 -1.6508 -0.2495 -2.6663
-0.2424 -0.1304 0.0170 -2.9844 -0.2972 -3.0564 -4.1939 -2.3242 -2.2042 -3.3901 1.4448 0.6315 -2.8272 1.2354 2.0244 -0.5510 0.6359 2.8723 -3.1821 -0.6875 -0.5112 1.7189 1.3463 2.0647 -1.2640 -3.5810 -0.9134 2.5517 -4.4841 -1.8166 2.6498 -3.4284 -2.8745 3.4155 5.0624 1.9310 1.3638 -4.5521 -1.1925 2.1865 4.9073 2.4600 3.6846 2.8592 1.4217 0.3917 2.9977 2.9530 -0.5983 -1.9142 -2.8239 4.2003 4.0553 1.3983 1.7219 -2.5945 -3.2389 -2.5225 0.6190 -0.3106 -1.5106 0.7108 1.7940 0.4937 1.6709 2.6776 -1.2732 0.3313 0.4850 2.3594 2.5647 1.9742 0.3267 -3.6418 -1.5818 -1.6184 -2.2656 -2.0182 1.6437 3.5792 2.4769 0.5504 -2.7444 -2.5505 -3.1006 -1.3750 -2.0890
-0.0059 -0.8476 1.9538 -3.9277 -1.4216 -0.8937 -2.3505 -2.6613 0.6026 0.4137 0.5126 -1.3291 1.6321 1.0123 -0.5789 2.2474 1.0560 1.8518 -1.6298 -0.4198 -0.4097 0.8707 2.4606 3.4275 -2.2948 -2.3028 -3.6395 0.2476 -4.6992 -5.6386 0.8560 -5.2538 -4.3873 0.9751 6.5004 4.0682 -0.7153 -3.7831 -5.4422 1.7636 5.9513 3.1245 0.0324 4.5256 4.7007 2.3511 3.5756 2.0700 -0.9468 -3.5705 -1.7863 0.0913 5.8146 4.8820 0.5426 -4.9520 -3.1626 -0.1656 -0.5909 -0.4563 1.3624 0.6502 0.7868 1.8226 2.3667 2.3943 0.3565 -0.2912 0.9280 0.8336 3.8144 3.6996 -1.0736 -3.4346 -4.0980 -1.9382 -2.6752 -1.9630 1.6757 4.5306 2.9429 -0.4526 -4.0197 -3.0657 -2.5735 -1.8477 -0.5818
-1.0991 1.2964 -0.8218 -2.7012 -3.0212 0.6304 -0.3434 -3.6183 1.2071 1.4846 -0.7612 0.5474 2.1817 0.5625 0.3095 1.3069 2.8806 -0.1014 -0.9071 -1.2192 0.5438 0.0115 3.9691 1.7640 0.5424 -3.8883 -1.9404 -0.2652 -4.1962 -5.8694 -1.6832 -3.7402 -5.7100 1.1795 4.8452 5.5852 0.4473 -4.2417 -4.7313 2.0652 4.3153 4.7201 -0.5416 4.8909 4.0938 2.2104 3.4669 2.1984 -1.9528 -3.1292 -2.1889 -0.1402 5.1522 5.3054 -2.2738 -3.3873 -4.6073 0.2008 -0.6820 -0.2682 1.1092 1.4493 -0.0576 1.2170 3.4347 1.2713 -0.0608 0.7987 -0.4112 0.3297 4.3219 3.0611 -0.1889 -3.8628 -3.5038 -0.9830 -3.3320 -1.2765 1.5994 4.0482 3.3894 -1.4682 -3.4664 -3.5056 -1.2772 -2.8858 0.3667
1.2453 -0.4959 1.1477 -3.0938 -2.5497 0.3043 -0.7962 -2.7959 1.2511 -0.6401 1.1508 -1.3963 0.5862 2.0311 -1.2515 2.3461 2.1875 0.5283 -1.4297 -0.6303 0.0546 1.1209 4.1129 1.5959 0.4510 -3.7732 -1.5686 0.2862 -4.8159 -5.4462 -1.1089 -4.2997 -5.6231 0.1418 4.7255 5.5190 0.7940 -4.6613 -4.2124 0.8391 3.6284 5.1670 -0.0087 5.5446 3.3994 1.8720 2.4607 3.0047 -1.9289 -3.0242 -2.3727 -0.3019 5.7130 4.6576 -1.8562 -3.7307 -4.7244 -0.2675 -0.1664 -0.7288 1.2736 1.4692 -0.1207 1.8146 2.8941 1.7183 0.8219 0.2129 0.2466 0.7459 4.3935 2.8946 -0.0155 -4.0377 -3.2075 -1.1285 -3.0645 -1.2897 1.1519 3.4697 3.7757 -1.2531 -3.6192 -3.5024 -1.6615 -2.3294 0.1794
-0.1247 -1.0760 1.1100 -1.4993 0.9878 -3.3262 -3.3079 -0.6123 -2.6553 -3.4714 0.1625 0.9220 -2.9010 0.8887 2.1249 -0.7830 0.6645 3.4354 -1.8276 0.4538 -0.8467 -0.0839 2.9862 2.7249 0.9257 -1.2190 -2.5264 2.1798 -5.0393 -2.7071 0.7885 -5.5921 -2.7533 3.6517 4.4321 1.8998 2.2548 -3.6997 -2.6352 3.5053 3.1658 2.3347 1.4262 4.9118 1.9573 1.5936 1.4508 3.0494 -1.2633 -2.6554 -2.6295 2.6281 5.3396 1.6934 -0.3237 -4.9198 -2.7308 -2.2888 -0.4778 0.2065 -1.5764 0.3510 2.2693 0.2530 1.6679 3.0882 -1.1800 -0.4697 1.2280 1.1414 3.5621 2.4542 1.0389 -2.9403 -2.6083 -0.8192 -1.3855 -2.5685 2.1708 2.7205 2.6177 -0.1441 -3.5665 -2.6570 -1.9636 -0.0918 -2.4716
-1.0677 -0.7767 1.2669 -1.7700 0.5654 -3.6939 -3.3095 -1.1446 -2.7124 -3.9921 1.0577 0.3473 -3.3872 1.9014 1.4540 -1.5193 1.5410 3.0797 -2.1640 0.5816 -1.1843 0.9565 1.2246 2.7846 0.6671 -1.5190 -3.4491 2.7115 -4.6025 -1.8734 1.6903 -4.8566 -0.8073 3.7817 3.7910 1.3209 2.4279 -3.5808 -2.6984 2.4987 4.1910 1.4145 3.3917 1.7042 2.1430 0.1172 3.2818 2.2013 -0.8153 -2.3835 -1.4709 4.2698 2.5469 1.6781 0.5783 -4.2116 -0.6160 -2.9322 0.0354 -0.0448 -2.2485 1.1449 1.8954 -0.1796 2.0522 2.6983 -1.9582 0.0457 1.1063 1.9685 2.0235 2.2927 1.2096 -2.8526 -2.4983 -0.7623 -1.4476 -2.4379 1.5525 3.2449 1.9328 0.3744 -3.1985 -1.5103 -2.0900 -0.3593 -2.6184
-2.4347 0.9623 1.8481 -1.5465 0.8176 -2.9825 -3.1693 -0.7376 -1.8811 -0.3717 -1.7986 0.9081 0.4288 -1.1283 2.0060 -0.1087 0.6496 3.6771 -1.0240 -0.0366 -0.6390 -0.1249 3.1551 3.5163 -0.0863 -1.7261 -4.3479 1.1002 -5.5639 -4.6148 0.4660 -5.9478 -3.3133 2.8284 5.7382 2.3645 0.9485 -4.2743 -4.9604 3.0704 4.4136 2.3888 0.6772 5.5527 3.0886 1.8457 2.1146 2.9600 -1.0260 -2.8858 -2.1979 1.6371 6.3492 2.7123 -0.2060 -5.1770 -2.5111 -1.4805 -0.8266 0.5247 -0.4136 -0.0546 2.4538 0.5617 1.9354 3.3687 -1.5376 0.1501 1.6729 0.8201 4.0954 3.1579 0.2147 -3.4066 -4.0857 -0.9629 -1.6979 -2.8301 1.9980 3.5592 2.8119 -0.3089 -3.8865 -2.9505 -1.7951 -0.3449 -2.1456
1.1744 -0.3332 0.9052 -1.0312 0.3286 -3.5697 -2.9654 -0.6028 -2.2828 -2.3752 0.0770 0.8778 -2.0082 0.2692 2.3353 0.1599 0.6888 3.5094 -0.8735 0.1736 -1.0318 -0.0978 3.1984 3.6518 0.8601 -2.4509 -2.6857 0.9203 -6.1821 -4.1874 -0.5722 -6.2683 -4.2817 2.6621 6.1328 2.9180 1.3873 -5.0371 -3.6622 3.0126 4.8374 2.8066 0.5140 5.6914 3.5351 1.9630 2.3993 3.0319 -1.6544 -3.0735 -3.0733 1.4112 6.6010 3.2776 -1.4346 -5.3660 -3.9187 -1.1476 -0.5504 0.2280 -0.5731 0.3043 2.3246 0.6879 2.0669 3.3610 -0.0118 -0.1802 1.1546 0.7808 4.2492 3.4665 0.4516 -4.0321 -3.2480 -0.8538 -2.0716 -2.6593 2.0051 3.8566 3.0910 -0.8632 -4.2381 -3.3983 -1.5282 -0.4883 -2.4753
-0.9183 -1.0700 1.3008 -2.1066 0.6294 -3.4994 -3.4577 -1.2182 -2.4837 -3.9248 0.7721 0.7436 -3.2416 1.5550 1.8494 -1.2447 1.1180 3.2928 -2.2158 0.4491 -0.9577 0.1379 3.1091 2.5895 0.5799 -1.1721 -3.4135 2.7957 -4.3816 -2.4182 1.7746 -4.9041 -1.4550 4.0531 3.2662 1.4098 2.4600 -3.2346 -3.0322 3.5111 2.0893 1.7767 2.1525 4.4702 1.7664 1.2058 1.0763 2.6457 -0.8698 -2.4935 -1.6789 3.4018 4.4866 1.3966 0.6221 -4.3750 -1.1699 -2.8838 -0.1958 0.1943 -2.0547 0.7990 2.1387 0.0340 1.7310 2.8576 -1.8218 -0.2470 1.2624 1.4513 3.2528 2.1857 1.1954 -2.6317 -2.7259 -0.8700 -1.3906 -2.4528 2.1368 2.1018 2.1884 0.3698 -3.2144 -1.8469 -2.2725 -0.3773 -2.4643
-1.3561 1.1685 -0.9291 -3.7782 -2.1088 -2.9628 -3.5806 -3.2612 -0.7505 -3.6132 -0.0968 1.5078 -2.9187 1.0285 2.2524 -1.4829 2.9296 1.4753 -3.4947 -0.7043 -0.8522 0.8512 2.9092 0.5488 -0.5384 -1.5622 -3.1763 3.2744 -2.0097 -1.9638 2.8863 -2.6892 -0.6868 4.3786 1.8919 2.3446 2.2454 -1.6582 -2.7532 3.2485 1.9490 3.0753 3.3754 2.5020 0.3932 0.6440 2.4481 2.7894 -0.6925 -2.7683 -0.8578 4.4816 2.1622 0.9917 1.6835 -2.9645 -0.2792 -2.6872 -0.4166 0.3459 -2.0783 1.6310 1.2522 -0.0166 2.7848 1.6504 -1.9692 0.8848 0.0890 2.0894 2.6237 1.0861 0.9103 -1.9569 -2.3229 -1.4494 -2.2832 -1.8619 2.0459 2.3347 2.3935 0.7066 -2.5738 -1.1521 -3.1651 -2.1943 -1.6470
-1.4030 0.0170 1.9509 -2.4826 0.2261 -2.3024 -2.6890 -1.5044 -0.5075 1.6211 -0.8325 0.2274 2.0948 -0.4499 1.6153 0.9889 0.6780 3.5597 -0.4860 -0.2024 -0.7855 -0.1063 2.9127 3.1754 -1.7951 -2.2069 -4.3289 -0.1640 -5.7283 -5.3961 0.3981 -5.9873 -4.0321 1.5641 6.6379 2.9590 -0.8376 -4.5723 -5.5208 2.3422 5.5703 3.2221 -0.3663 5.4378 2.8207 2.1669 2.9245 3.5071 -0.6346 -3.1086 -2.1618 0.1973 6.6100 2.7475 0.3002 -5.2230 -2.9854 0.1072 -0.9723 0.3268 0.9154 0.0629 2.2553 1.0537 2.1513 3.4147 -0.2611 -0.2268 1.5876 0.3714 4.2062 3.1169 -0.9549 -3.7145 -4.3775 -1.3485 -2.0701 -2.6386 1.6962 4.2911 3.2963 -0.3995 -4.0705 -3.2122 -1.8889 -0.8561 -1.5338
-2.1778 0.7275 0.7858 0.5385 0.3731 -3.2398 -1.7615 0.4778 -2.2604 0.4487 -1.6713 1.1740 0.6121 -0.7725 2.3859 -0.7813 1.0721 3.3636 0.2086 -0.2480 -0.7823 1.1001 2.5718 4.0800 -2.2493 -2.7156 -2.6909 -1.2604 -6.3538 -4.0928 0.1749 -5.9843 -4.3079 2.1861 6.2697 2.7131 -2.0233 -5.3793 -3.5699 1.1499 5.6242 2.1440 2.6370 4.6191 4.2162 -0.2116 3.3408 2.3590 0.3092 -2.5680 -3.2343 2.9561 5.7973 3.7609 0.7392 -4.8433 -4.0455 -0.5509 -0.9839 0.2519 -0.4723 0.1653 2.2835 0.0152 2.3147 3.2216 -1.1944 0.0763 1.1087 1.5382 3.8157 3.6723 -1.4201 -4.1125 -3.2760 -0.7376 -1.8371 -2.8051 0.8186 4.3290 2.6658 -0.1181 -3.9163 -3.5214 -0.4737 -0.1883 -2.3601
-0.6072 -1.3684 1.0773 -2.2597 0.7339 -3.1442 -3.8092 -1.0609 -2.3348 -3.8072 0.1635 1.3947 -2.9658 0.9262 2.4020 -0.6620 0.5840 3.3218 -2.4777 0.3235 -0.6308 0.1758 2.7810 2.4032 -1.3799 -3.2158 -2.0519 2.4669 -4.3734 -1.8269 2.9930 -2.9795 -1.9827 3.7473 3.6589 0.6137 1.1278 -4.4790 -1.8487 3.5200 2.4156 1.0790 1.7183 4.4750 1.2495 1.6209 0.9982 2.2995 0.0139 -1.0098 -2.2851 2.8641 4.7217 0.6809 2.2987 -1.8914 -2.1355 -2.8221 -0.5750 0.4956 -1.6864 0.2732 2.3511 0.3896 1.4193 2.6908 -1.5608 -0.6433 1.3214 1.3581 3.1659 1.8025 0.3447 -3.2903 -2.0202 -1.2487 -1.4801 -2.2610 2.2513 2.1722 1.7035 0.9482 -2.1020 -2.1522 -2.5517 -0.3431 -2.2128
-1.5913 -1.0782 1.3332 -2.5573 0.0306 -3.4790 -3.4808 -1.7745 -2.0023 -4.2852 1.1921 0.8512 -3.3408 1.9786 1.7425 -1.2936 1.3519 3.0364 -2.8535 0.5037 -0.9825 0.3286 2.7312 1.6750 0.4281 -0.1782 -1.5127 3.4168 -2.8364 -1.0673 2.5479 -4.0098 -1.4012 4.1579 1.8512 0.5358 2.7933 -1.6466 -1.0897 3.4803 0.9947 1.3237 2.4654 3.3697 0.4063 1.0954 0.7214 2.4810 -0.6607 -2.5167 -1.9733 3.6807 3.0574 0.0553 1.2802 -3.9907 -1.6871 -3.4664 0.0382 0.2830 -2.2668 1.0614 2.0080 0.0405 1.5761 2.4271 -2.3235 -0.1020 1.2591 1.6313 2.5238 1.2655 1.3963 -1.6038 -1.4088 -0.9434 -1.2023 -1.8944 2.1449 1.3641 1.6965 0.7347 -2.7373 -1.6756 -2.5590 -0.6696 -2.2058

>  <OB_ATOM_TYPES> (1f0sA1)
O.2 O.2 O.2 C.3 C.3 C.3 N.3 N.ar S.2 C.ar C.ar C.ar C.ar C.ar C.ar C.ar C.ar N.ar N.ar C.3 N.am C.ar C.2 C.ar C.ar C.ar C.ar C.ar S.O2

>  <ENSEMBLE_RMSD> (1f0sA1)
0.808 0.962 1.134 1.313 1.319 1.372 1.460 1.462 1.492 1.608 1.609 1.668 1.703 1.732 1.754 1.785 1.785 1.836 1.836 1.857 1.861 1.884 1.907 1.914 2.016 2.017 2.061 2.070 2.070 2.100 2.169 2.174 2.214 2.232 2.247 2.353 2.360 2.377 2.455 2.459 2.561 2.579 2.595 2.609 2.646 2.698 2.842 2.869 2.915 2.976

$$$$
