
 OpenBabel03071213D

 33 36  0  0  0  0  0  0  0  0999 V2000
    5.7010    2.4500   15.8530 C   0  0  0  0  0
   10.1050    6.5260   28.4000 N   0  0  0  0  0
    2.9820    6.7090   21.8260 O   0  0  0  0  0
    7.0060    0.4220   15.5920 N   0  0  0  0  0
   12.1710    7.5740   28.1700 N   0  0  0  0  0
    2.9120    8.8320   21.3890 O   0  0  0  0  0
    9.3440    1.7900   18.7950 C   0  0  0  0  0
    8.9230    1.0600   17.5440 C   0  0  0  0  0
    7.4520    2.9440   18.1600 C   0  0  0  0  0
    5.4000    8.2470   23.1480 C   0  0  0  0  0
    8.6120    3.6880   20.1390 O   0  0  0  0  0
    7.6620    9.4000   22.6650 C   0  0  0  0  0
    6.8210    4.5210   21.5670 C   0  0  0  0  0
    7.6780    5.9480   19.8020 C   0  0  0  0  0
    5.9360    5.5240   21.9400 C   0  0  0  0  0
    6.7960    6.9530   20.1780 C   0  0  0  0  0
    8.9470    9.7530   23.0930 C   0  0  0  0  0
   11.1950    8.9950   25.9340 C   0  0  0  0  0
   10.7200    9.5510   24.7430 C   0  0  0  0  0
    7.3860    8.0220   24.6130 C   0  0  0  0  0
    9.1340    7.8410   26.2190 C   0  0  0  0  0
    8.7690    3.1530   18.8680 C   0  0  0  0  0
    5.0580    7.9040   21.7030 C   0  0  0  0  0
    7.7040    1.8270   17.2590 N   0  0  0  0  0
    6.8740    1.5560   16.2570 C   0  0  0  0  0
   10.9090    7.3820   27.7650 C   0  0  0  0  0
    3.5350    7.7930   21.6200 C   0  0  0  0  0
    6.8510    8.5690   23.4630 C   0  0  0  0  0
    7.6880    4.7380   20.5010 C   0  0  0  0  0
    5.9370    6.7410   21.2500 C   0  0  0  0  0
   10.4250    8.0720   26.6620 C   0  0  0  0  0
    9.4380    9.2310   24.2950 C   0  0  0  0  0
    8.6490    8.3480   25.0430 C   0  0  0  0  0
  1 25  1  0  0  0
  2 26  1  0  0  0
  3 27  1  0  0  0
  4 25  2  0  0  0
  5 26  2  0  0  0
  6 27  2  0  0  0
  7  8  1  0  0  0
  7 22  1  0  0  0
  8 24  1  0  0  0
  9 22  1  0  0  0
  9 24  1  0  0  0
 10 23  1  0  0  0
 10 28  1  0  0  0
 11 22  1  0  0  0
 11 29  1  0  0  0
 12 17  2  0  0  0
 12 28  1  0  0  0
 13 15  1  0  0  0
 13 29  2  0  0  0
 14 16  2  0  0  0
 14 29  1  0  0  0
 15 30  2  0  0  0
 16 30  1  0  0  0
 17 32  1  0  0  0
 18 19  1  0  0  0
 18 31  2  0  0  0
 19 32  2  0  0  0
 20 28  2  0  0  0
 20 33  1  0  0  0
 21 31  1  0  0  0
 21 33  2  0  0  0
 23 27  1  0  0  0
 23 30  1  0  0  0
 24 25  1  0  0  0
 26 31  1  0  0  0
 32 33  1  0  0  0
M  END
>  <MOLID> (1faxA1)
1faxA1

>  <SMILES_CANONICAL> (1faxA1)
CC(=N)N1CC[C@@H](C1)Oc1ccc(cc1)[C@@H](C(=O)O)Cc1ccc2c(c1)cc(cc2)C(=N)N	

>  <FINGERPRINT> (1faxA1)
0000010000000000001000000000000000000000000000000000000000001000001000000001000000000001000010100000000000000001000001100000001000000000000000000001000011000001000000100000000000000000000100000000001000000100000000000000000000100000000000000001000000000000000000000000000000001011000000000000000000001000000010001100001100001000001100000000000000000000010000000000000010010000000000000000010110000000100010100000001000000000000000000000000000000000010000010000010000010000000000010000000000011000001000000000100000011000001000000000000000000000000000100000000000000000000000000000000011000000000000000000100000000000000000100000001000000001000000000000000000000001000000000001100000010100101010100000100000010011000000000000000011000000000000000100000000000000000100000000000000000000000010000000000110000000000000000000000000000000010000000001001000000000000000000001000000000000000000000000000100000000000000000000001000011000000000000000011000000000000000101100000000000100001000000000000000000000000000000000011101000000

>  <MACCS166> (1faxA1)
000000000000000000000000010000000000010000100000010000000000000000000000001111000011110001000011001100001001000010010011111011100011000111111110110110111111111110111000

>  <OB_MW> (1faxA1)
444.216

>  <OB_logP> (1faxA1)
4.8227

>  <OB_PSA> (1faxA1)
123.49

>  <OB_MR> (1faxA1)
134.866

>  <OB_ATOMIC_CHARGES> (1faxA1)
0.1348517147 0.2047061673 -0.2452917858 0.1878846527 0.2047061673 -0.2452917858 0.0986140528 0.2061348493 0.2459269703 0.0420145664 -0.4747525533 -0.0042430341 0.0365885115 0.0365885115 -0.0006186996 -0.0006186996 -0.0003222348 0.0079924041 0.0002550535 -0.0042397303 0.0079825047 0.2164172677 0.1299377823 -0.1871066651 0.3532291256 0.4766083983 0.3686722338 -0.0213028324 0.138558353 -0.011284944 0.0974773452 -1.33042e-05 -6.03634e-05

>  <MCT_HBD> (1faxA1)
4

>  <MCT_HBA> (1faxA1)
7

>  <ENSEMBLE_TOTAL> (1faxA1)
50

>  <ENSEMBLE_COORDS> (1faxA1)
-0.6756 -4.9286 -6.7739 3.6079 -0.4327 5.5341 -4.1908 3.5434 -0.8882 0.7028 -6.6720 -5.9288 5.2806 1.0347 4.7920 -4.8544 1.4633 -0.2338 1.1174 -4.1427 -2.5581 0.8192 -5.4267 -3.3082 -0.5139 -3.6570 -4.2168 -2.3877 2.0520 1.4208 0.3551 -1.9179 -2.8199 -0.8518 3.9422 2.0771 -1.4888 -1.3770 -1.3275 -0.1517 0.3466 -2.3782 -2.2229 -0.3322 -0.6320 -0.8243 1.3111 -1.7265 0.2120 4.4447 2.7348 3.1705 3.0175 4.6136 2.2312 3.9664 4.0373 -0.2081 1.6071 2.4495 1.8557 1.2063 3.6708 -0.0968 -3.2696 -2.8097 -2.5150 2.1199 -0.0872 -0.1102 -5.0523 -4.3709 0.0352 -5.6013 -5.6325 4.0173 0.7460 4.9399 -3.9733 2.2895 -0.4187 -1.0719 2.5062 1.9415 -0.5001 -1.0520 -2.1862 -1.9077 0.9660 -0.8166 2.9993 1.6972 4.4159 1.1717 3.5273 3.3317 0.9691 2.0745 3.1545
0.2676 -6.9232 -6.3545 4.0240 0.0662 5.7089 -4.4901 1.5414 -0.3752 -0.7494 -4.9303 -7.1589 5.3162 2.0103 5.5135 -3.6527 3.5629 -0.9981 0.8457 -4.5258 -2.9401 0.3778 -5.7143 -3.7554 -0.7438 -3.7434 -4.5257 -2.1461 1.6890 1.4144 0.3218 -2.2201 -3.0156 -1.0730 3.7553 2.3446 -1.5108 -1.5810 -1.5509 0.0266 0.0532 -2.4648 -2.1449 -0.5105 -0.8006 -0.5469 1.0384 -1.7539 -0.1864 4.3970 3.1288 2.8651 3.4446 5.1377 1.7868 4.2256 4.5581 0.0483 1.5830 2.5410 2.0772 1.5072 3.8994 -0.2691 -3.5122 -3.1030 -2.1605 1.9061 -0.0818 -0.4801 -5.1548 -4.7971 -0.3516 -5.5765 -6.1080 4.1731 1.3974 5.3693 -3.4886 2.4373 -0.5478 -0.9707 2.3271 2.0667 -0.4715 -1.3085 -2.3672 -1.6767 0.7509 -0.8852 3.0176 2.1499 4.8028 0.9110 3.6459 3.7165 1.0540 2.2120 3.3821
-0.8209 -6.4903 -5.5659 5.2384 1.1862 4.8546 -4.5714 1.4415 -0.5127 -1.5564 -4.3369 -6.2529 3.5197 -0.3507 5.2869 -3.7866 3.2038 -1.7218 1.7774 -4.1982 -2.9350 1.0214 -5.2200 -3.7641 0.2394 -3.0371 -4.3643 -2.3944 2.1563 1.2015 -0.0356 -2.9585 -1.9766 -0.9712 4.0485 2.0697 -0.0913 -0.5312 -2.1683 -1.4492 -1.7028 -0.5451 -0.7084 0.7112 -1.7377 -2.0407 -0.5546 -0.1676 0.0504 4.5446 2.7969 2.9973 3.0902 4.6778 2.0454 4.0473 4.1349 -0.2810 1.7148 2.3569 1.7504 1.3028 3.6097 0.9416 -2.9337 -3.0168 -2.2690 1.9864 -0.2990 0.3019 -4.4390 -4.7599 -0.7096 -4.9921 -5.5217 3.9045 0.8284 4.8804 -3.5965 2.2793 -0.9437 -1.1412 2.6163 1.8501 -0.4344 -1.7001 -1.5870 -1.6638 0.7101 -0.7871 2.8631 1.7788 4.4061 1.0154 3.6223 3.3789 0.8552 2.1768 3.1229
-0.9317 -6.3299 -6.4437 5.0323 1.1885 6.1345 -4.6892 1.7061 0.4088 1.4425 -6.2258 -6.5081 2.9252 1.0298 7.1527 -4.0502 3.5734 -0.7225 0.9942 -3.2713 -3.4054 1.4932 -3.9979 -4.6405 -0.8948 -4.1508 -4.5417 -2.0362 1.9892 1.4730 -1.1795 -2.9520 -2.4850 0.0345 3.4523 1.1772 -0.9107 -0.5350 -2.4494 -2.4022 -1.6670 -0.9178 -1.2361 0.7169 -1.7875 -2.6712 -0.5134 -0.2809 1.2350 3.9128 1.5834 3.6285 3.1332 4.4118 3.0410 3.7551 3.2350 -0.1104 1.7551 2.9344 1.7338 1.6186 4.5072 -0.4582 -2.9537 -3.7136 -2.3640 2.0054 -0.0031 0.2986 -4.5202 -5.2948 0.3619 -5.6738 -6.0514 3.6703 1.4203 6.1548 -3.7721 2.5122 -0.1812 -0.6469 2.3526 1.8540 -1.4976 -1.6850 -2.0562 -2.0832 0.7387 -0.7398 3.0061 2.1003 5.0094 1.8626 3.3156 2.7536 1.1743 2.1998 3.4328
-1.3157 -5.5024 -5.4722 5.3820 0.9731 3.7240 -4.7801 1.7530 -0.7252 0.2468 -7.0381 -4.5480 3.9817 -0.8802 3.4001 -4.1383 3.8879 -1.1817 1.7522 -3.5369 -2.4168 1.4936 -4.9292 -2.9629 -0.0827 -3.4169 -3.9401 -2.7118 2.1231 1.3043 0.6863 -1.4389 -2.8437 -1.4960 3.5599 2.9796 -1.3587 -0.9882 -1.6143 0.2503 0.7596 -2.0692 -2.2030 0.0025 -0.9704 -0.5651 1.6884 -1.5371 -0.4805 3.8225 3.8276 2.8677 2.2395 4.6258 1.7183 3.1316 4.6726 -0.4411 1.5511 2.0593 1.7835 1.0006 2.8432 0.4313 -2.8260 -2.6365 -2.5499 2.3736 -0.1839 0.5594 -4.7217 -4.0640 -0.1031 -5.7929 -4.6322 4.1304 0.3971 3.6236 -3.8787 2.7641 -0.7735 -1.4790 2.4074 2.0854 -0.1475 -0.6398 -2.0963 -1.8420 1.3014 -0.9489 2.9053 1.2353 3.7302 0.6773 2.9386 3.8403 0.7069 1.8007 2.9008
2.7877 -5.1531 -4.8931 5.3930 0.8723 4.5485 -4.4466 3.5291 -0.6970 0.9967 -5.5220 -6.4105 3.5860 -0.5104 5.1055 -5.0119 1.4561 0.0611 -1.5348 -4.1148 -3.1522 -0.9765 -4.7055 -4.4316 0.8470 -4.3070 -2.9181 -2.4466 2.1294 1.4198 -0.1781 -2.1491 -2.8524 -0.7808 3.9738 1.8758 -1.8041 -1.4623 -1.1788 -0.4147 0.1484 -2.3250 -2.4704 -0.3579 -0.5082 -1.0669 1.1722 -1.7432 0.3489 4.4505 2.4380 3.3339 2.9463 4.2284 2.4214 3.9217 3.6461 -0.2754 1.6372 2.4103 1.8089 1.1853 3.5578 -0.3479 -3.5009 -2.4243 -2.6756 2.1258 -0.0789 0.4338 -4.9383 -4.1661 1.3167 -5.1927 -5.1977 4.0372 0.6250 4.6439 -4.1642 2.2776 -0.2564 -1.0929 2.5489 1.8538 -0.7741 -1.2290 -2.0197 -2.1351 0.9191 -0.7835 3.0437 1.6324 4.1722 1.2812 3.5160 3.0542 0.9605 2.0759 3.0211
-0.4753 -5.1961 -6.1206 5.4381 0.7565 3.5197 -4.1551 3.9351 -0.9676 1.7976 -5.7126 -5.6477 3.8611 -0.9603 3.2802 -4.9492 1.8336 -0.5832 0.8621 -4.1975 -1.6504 1.5309 -4.7619 -2.8904 -0.6204 -3.9117 -3.5292 -2.6706 2.3682 1.3839 0.2270 -2.0009 -2.3574 -1.2280 3.8875 2.7885 -1.6544 -1.2529 -1.0002 -0.1987 0.3187 -2.1258 -2.3957 -0.1246 -0.4594 -0.8900 1.3614 -1.6303 -0.1380 4.1540 3.5382 3.1195 2.3730 4.3108 2.0580 3.3708 4.3181 -0.4178 1.6908 2.0761 1.7860 1.0217 2.8042 -0.2683 -3.3249 -2.1702 -2.6199 2.3755 -0.1355 0.4706 -4.8085 -3.8810 0.6916 -5.2311 -5.1741 4.1344 0.3035 3.4628 -4.0254 2.6330 -0.6086 -1.3669 2.6427 2.0397 -0.5957 -1.0442 -1.8109 -2.0383 1.1415 -0.7590 2.9948 1.2578 3.5666 0.9392 3.1742 3.5943 0.7969 1.9279 2.8184
-0.0057 -5.5688 -7.8894 1.7332 5.0878 7.0370 -4.3083 0.7730 0.6252 -2.1056 -4.5376 -7.4639 3.7550 3.9620 7.4119 -3.6988 2.9483 0.3579 0.8349 -4.4251 -3.7812 0.8774 -4.6527 -5.2807 -1.3164 -3.8516 -4.7233 -1.5932 0.6640 1.7417 -0.0108 -2.1920 -3.5992 0.9187 0.6650 1.5300 -1.5484 -1.8757 -1.7451 -0.1259 -0.0810 -2.5322 -2.1059 -0.9614 -0.7694 -0.6906 0.7833 -1.6706 2.1625 1.0213 1.9034 3.6657 3.0999 4.6797 3.5415 2.2755 3.4888 -0.1879 1.9276 3.3142 1.2506 3.0444 4.9217 -0.3934 -3.5637 -3.5466 -1.9880 1.2504 0.4024 -0.5093 -4.5671 -5.6954 -0.9408 -4.8282 -6.9756 2.7153 4.1916 6.6585 -3.4033 1.7638 0.4366 -0.2732 1.1588 2.2131 -0.5599 -1.4682 -2.5680 -1.7056 0.3252 -0.7318 2.5684 3.4378 5.3825 2.3264 1.8799 3.0652 1.1216 2.3135 3.8025
1.8837 -6.4411 -5.5712 4.0279 0.4363 6.3871 -4.2679 1.4639 0.0561 -0.1978 -7.1435 -6.4830 5.1915 2.4662 6.2487 -3.5078 3.5495 -0.4403 -1.8503 -3.6675 -4.7056 -1.6644 -5.1455 -4.9965 0.4524 -4.1566 -4.4773 -1.6632 1.3325 1.3590 -0.3524 -1.9259 -4.0526 -0.8858 3.5503 2.2792 -1.7044 -1.4732 -2.0903 -0.1540 0.1704 -2.9532 -2.1262 -0.5060 -1.0949 -0.5873 1.0862 -2.0671 -0.1529 4.3020 3.1229 2.7069 3.6950 5.5174 1.6500 4.3597 4.7744 0.3803 1.4984 2.7087 2.2123 1.6461 4.3098 -0.6431 -3.3066 -3.8598 -1.9105 1.7804 -0.0655 -0.2306 -5.3914 -4.8589 0.3890 -6.3249 -5.6672 4.1201 1.7619 6.0066 -3.2921 2.3701 -0.1959 -0.6270 2.1281 2.0728 -0.7153 -1.1725 -2.9578 -1.6093 0.7388 -1.0892 2.9883 2.4008 5.2779 0.9249 3.6743 3.8707 1.2146 2.2442 3.6348
2.3752 -6.0463 -4.1288 3.3712 0.3420 6.6812 -4.5929 1.8869 0.1449 1.0919 -6.7385 -6.0087 5.2198 1.4861 5.8030 -3.6737 3.7245 -0.8309 -1.5273 -3.6349 -5.1064 -0.4848 -4.3119 -5.9784 0.4409 -3.9196 -3.8073 -2.0132 1.7803 1.4192 -1.4801 -2.9345 -2.8265 -0.4085 3.7232 1.6756 -0.8810 -0.5924 -2.5798 -2.6627 -1.5964 -1.2858 -1.0950 0.6464 -1.8492 -2.8202 -0.4683 -0.5733 0.6442 4.3385 2.2490 3.3218 3.3863 4.7442 2.5175 4.1629 3.8148 0.0247 1.5699 2.7591 1.9390 1.4498 4.2580 -0.7112 -2.9567 -4.0248 -2.2224 1.9534 -0.0700 0.6511 -4.5715 -5.0962 1.2986 -5.7925 -5.1473 3.9311 1.2886 5.8442 -3.5513 2.6191 -0.3215 -0.7240 2.3200 1.9283 -1.6641 -1.6649 -2.3390 -2.0241 0.7138 -0.8755 3.0541 2.0817 4.9390 1.4821 3.5897 3.1728 1.1735 2.1653 3.4161
1.5142 -6.8068 -3.3070 5.2564 0.2357 4.0589 -4.9492 2.0984 -0.2309 -0.1222 -6.4545 -4.9947 3.4355 -1.2294 4.2296 -4.1164 4.0450 -1.0650 1.5780 -2.4692 -3.1136 1.8071 -3.9669 -3.0465 -0.0082 -3.5343 -4.5631 -2.5507 2.3571 1.3603 -0.7736 -2.3523 -2.6331 -0.8819 3.9980 2.3263 -0.5670 0.0569 -2.3730 -2.3751 -1.1753 -1.3470 -1.0580 1.2559 -1.7112 -2.7990 -0.0757 -0.6971 0.2484 4.2961 3.0010 3.2120 2.3309 4.3213 2.3112 3.4383 4.0291 -0.3940 1.6006 2.2113 1.6859 0.8387 3.1736 0.1815 -2.2965 -3.6938 -2.5946 2.4163 -0.1525 0.9328 -4.5282 -4.0621 0.6993 -5.8837 -4.1707 3.8986 -0.0173 4.0828 -3.9417 2.9387 -0.5723 -1.2075 2.6320 1.9272 -1.2244 -1.1141 -2.2364 -2.1325 1.2053 -0.8976 2.9171 1.0881 3.8946 1.1729 3.2221 3.3419 0.8452 1.8501 2.9097
-0.2106 -6.5491 -7.0985 4.0616 3.2918 7.4830 -4.4177 1.1129 0.7441 1.7452 -6.0051 -5.8586 2.0707 4.4987 7.1957 -3.7404 3.2754 0.5394 -1.8906 -3.1233 -5.0899 -1.6442 -4.5180 -5.6321 0.3794 -3.6969 -4.6221 -1.6748 0.7819 1.6722 -0.4682 -1.5457 -4.0198 0.8275 0.7273 1.3653 -1.8968 -1.3729 -2.0693 -0.4019 0.4205 -2.7086 -2.3663 -0.5476 -0.9754 -0.8979 1.2165 -1.7451 2.0948 1.0076 1.7239 3.7656 2.7332 4.6375 3.5701 2.0446 3.3740 -0.1730 1.8327 3.3097 1.3586 2.7325 4.9679 -0.8002 -2.9300 -4.0494 -2.0961 1.5174 0.4173 -0.2301 -4.7583 -5.4044 0.4985 -5.7186 -6.0662 2.9474 3.6434 6.7453 -3.4865 2.0787 0.5534 -0.3225 1.1835 2.1406 -0.9023 -0.9354 -2.8688 -1.8976 0.7061 -0.8168 2.7064 3.0316 5.4119 2.3273 1.7365 2.9597 1.1649 2.1281 3.7841
-0.8027 -3.9565 -7.1809 4.1535 4.8011 3.4497 -4.5358 2.0577 -0.3735 1.1761 -5.2324 -6.8473 4.5756 3.8646 5.5589 -3.2906 3.9572 -0.5244 0.3581 -4.6052 -2.5966 0.9891 -4.9184 -3.9403 -0.9538 -3.5644 -4.3292 -2.5385 1.4695 1.6748 0.1683 -2.2205 -2.6997 -1.0449 -0.0369 3.0022 -1.8042 -1.4149 -1.5286 0.1541 -0.0187 -1.8209 -2.4400 -0.3209 -0.8232 -0.4509 1.0083 -1.1974 0.0984 -0.3522 3.6417 3.2697 1.4779 4.5905 2.2862 0.4185 4.4285 -0.4087 2.3010 2.6273 1.7525 3.0059 3.4684 -0.5657 -3.4314 -2.8647 -2.2522 1.9291 0.2573 -0.0084 -4.5037 -4.9114 0.2071 -4.5944 -6.2690 3.9638 3.8232 4.4081 -3.3836 2.7636 -0.2738 -1.2891 1.2959 2.4628 -0.5430 -1.2832 -1.9895 -1.7985 0.8532 -0.6658 3.0002 2.7201 4.1471 1.1149 0.6742 3.8153 0.8428 2.0329 3.3036
-1.3566 -5.2574 -7.6962 2.4897 5.3735 6.5324 -4.3537 1.7102 0.5745 0.9278 -5.8705 -7.4575 3.9906 3.7521 7.3157 -3.2142 3.5569 -0.1088 0.7038 -3.7127 -3.7144 1.2034 -4.2979 -5.0216 -1.1077 -3.7013 -5.2570 -1.8099 1.0398 1.7896 -1.4331 -2.9528 -3.0141 0.6149 0.3963 1.7776 -0.6916 -0.7082 -2.4240 -2.5841 -1.7632 -1.3402 -0.8929 0.4506 -1.5689 -2.7602 -0.6975 -0.5430 1.8952 0.4876 2.1821 3.8084 2.5463 4.7030 3.5037 1.5933 3.6501 -0.1826 2.1790 3.2597 1.4556 3.1484 4.7835 -0.5202 -2.9042 -4.1041 -1.9896 1.5357 0.3689 0.0534 -4.2807 -5.9154 -0.0418 -5.1568 -6.9759 3.1353 4.1570 6.4176 -3.2278 2.3815 0.2319 -0.4303 1.2754 2.2920 -1.5243 -1.7667 -2.3320 -1.8891 0.4635 -0.6611 2.8198 3.2639 5.2680 2.2399 1.4581 3.2075 1.1685 2.3007 3.7801
-2.8518 -4.7668 -7.1911 4.7807 2.0312 6.1022 -3.2596 1.6908 -0.5526 -2.0356 -6.9610 -6.7711 4.4987 4.3005 6.6180 -1.8961 3.5018 -0.7496 0.6981 -4.9410 -4.0368 -0.0816 -5.9468 -4.8620 -0.9116 -3.7550 -5.3479 -1.1341 0.8174 1.2601 0.5709 -2.5592 -3.9070 -1.6136 2.5605 2.9734 -1.0896 -1.7669 -2.3214 0.9669 -0.5488 -2.7143 -1.4750 -0.7436 -1.3703 0.5922 0.4193 -1.8587 -1.3334 3.2936 4.0663 1.6789 3.8551 6.2690 0.3287 3.9172 5.7403 0.6586 1.6621 2.7590 2.3018 2.4305 4.3991 -0.2225 -3.7389 -3.9944 -0.9374 1.3763 -0.1333 -0.8343 -5.1358 -5.8128 -1.8619 -5.6964 -6.5465 4.0196 3.1837 6.1425 -2.0538 2.3087 -0.5302 -0.6151 1.7209 2.3217 0.1043 -1.6964 -2.9451 -0.6767 0.3202 -1.1514 2.6289 3.1679 5.6086 0.0117 3.2499 4.6154 1.0437 2.4489 3.9209
2.8405 -5.8740 -3.9572 5.4451 0.8074 3.8481 -4.2519 3.9650 -0.7307 0.9918 -6.9930 -4.9479 3.8887 -0.9455 3.9176 -5.0236 1.8534 -0.3553 -1.1841 -3.3892 -4.0144 -0.8318 -4.8518 -4.2099 1.0451 -3.7008 -3.2635 -2.6182 2.1478 1.4313 0.0351 -1.5222 -3.1751 -1.2060 3.8026 2.7032 -1.7699 -1.0313 -1.6214 -0.2196 0.6795 -2.3392 -2.4767 -0.0210 -0.8515 -0.9127 1.6256 -1.6800 -0.1397 4.1365 3.4583 3.0890 2.4506 4.4925 2.0242 3.4352 4.3758 -0.3577 1.5655 2.1743 1.8268 0.9707 3.0411 -0.2139 -2.9070 -2.9499 -2.6650 2.3775 -0.0675 0.5447 -4.9826 -3.7474 1.3722 -5.9598 -4.2627 4.1478 0.3332 3.8793 -4.1016 2.6530 -0.4216 -1.3179 2.5004 2.0547 -0.6451 -0.7110 -2.2959 -2.0835 1.2685 -0.8883 2.9994 1.2792 3.8356 0.9372 3.1707 3.6262 0.8314 1.8667 2.9413
2.2337 -6.4925 -3.6021 5.1978 0.0116 4.5108 -5.1128 1.5414 0.2583 2.5660 -5.0280 -1.7573 3.2275 -0.9269 5.3708 -4.7879 3.7274 -0.2819 -0.6111 -3.4709 -4.8641 0.0902 -4.7709 -4.5081 0.6403 -3.0933 -2.8774 -2.4603 1.9904 1.3418 -0.6782 -1.3185 -3.8598 -0.5032 3.6096 1.4713 -2.1893 -0.9907 -1.9863 -0.9486 0.8516 -2.9501 -2.7611 -0.0590 -1.0298 -1.5308 1.7234 -2.1074 0.7135 3.9698 1.9279 3.4774 2.2926 3.8969 2.7163 3.3012 3.1763 -0.3458 1.3206 2.3276 1.6825 0.7075 3.4999 -0.6669 -2.7082 -3.5519 -2.8751 2.2750 -0.0840 0.8648 -4.4597 -3.3188 1.8867 -5.2452 -2.8395 3.8264 0.0023 4.6768 -4.3447 2.6036 -0.0884 -1.0404 2.2673 1.6718 -1.2654 -0.5653 -2.8725 -2.4642 1.2546 -1.0916 2.9853 1.0474 4.0346 1.5099 2.9964 2.6614 0.9675 1.6354 2.8447
-0.2261 -7.3792 -4.4951 4.6858 0.1725 4.0269 -4.1638 2.1985 -1.0198 -0.8720 -6.4088 -2.4216 5.1282 2.1586 5.1905 -3.0577 4.1790 -0.8311 0.6424 -3.2043 -5.4908 0.2332 -4.6675 -5.4675 0.0052 -3.7683 -3.2614 -2.2181 1.4989 1.0160 0.6621 -1.5203 -3.7856 -1.8735 2.7912 3.1420 -1.3262 -0.9476 -2.5235 0.4669 0.6469 -2.8290 -1.9728 -0.0081 -1.6312 -0.1244 1.5123 -1.9839 -1.1834 3.1174 4.2533 2.2969 2.4378 5.5808 0.9246 2.9131 5.4912 -0.0396 1.4947 2.1616 2.0477 1.4227 3.3916 -0.0712 -2.6380 -4.2788 -1.8941 2.1334 -0.3216 0.1328 -4.9842 -4.0496 -0.3582 -6.1875 -3.5909 4.2769 1.3546 4.6160 -3.0676 2.9570 -0.7757 -1.3004 1.9593 2.0892 -0.1568 -0.6349 -3.1195 -1.3949 1.1768 -1.3525 2.8402 1.7459 4.5616 0.1841 2.6394 4.4001 0.7738 1.8385 3.3084
1.5747 -6.8152 -5.2819 5.2770 3.1008 5.4472 -4.0238 2.1612 -0.6894 -0.4889 -7.1889 -6.4037 4.8467 0.9212 4.6949 -2.6799 3.9975 -0.7494 -1.3732 -3.1866 -4.9542 -1.5029 -4.6001 -5.4876 0.4189 -4.4650 -4.0606 -2.0364 1.4010 1.3339 0.2202 -2.1444 -3.5174 -1.7792 2.9606 3.2769 -1.6212 -1.3437 -2.1432 0.4431 -0.0978 -2.3562 -2.1303 -0.2889 -1.2853 -0.0489 0.9029 -1.6050 -1.1260 3.4602 4.3444 2.3554 3.1556 5.7878 0.9603 3.5283 5.6227 0.1456 1.6774 2.4668 2.2232 1.8957 3.7151 -0.5335 -3.3381 -3.6981 -1.7472 1.8838 -0.0707 -0.3715 -5.3281 -4.9272 0.1549 -6.4236 -5.5781 4.4166 2.1126 5.0081 -2.8361 2.7993 -0.5577 -1.1445 2.0422 2.3374 -0.3622 -1.2774 -2.6252 -1.3827 0.8034 -1.0294 2.9633 2.3954 4.8587 0.2644 3.0885 4.5575 0.9244 2.2101 3.5689
-1.8983 -5.9507 -6.8801 5.0230 3.3885 6.1248 -3.3451 2.5936 -0.6376 -0.7171 -7.4683 -5.4841 4.7724 1.1953 5.3380 -1.5462 3.9856 -0.6958 1.0664 -3.8233 -3.8416 0.5824 -5.2363 -4.1014 -0.3402 -3.7902 -5.7803 -1.6475 1.1919 1.2367 -1.0384 -2.6650 -3.7980 -1.7253 2.8487 3.1367 0.1409 -0.8239 -2.7203 -2.2357 -1.1558 -2.4395 0.0618 0.2753 -1.7654 -2.2995 -0.1693 -1.5286 -1.2307 3.4368 4.2456 2.0672 3.3660 6.1170 0.6868 3.6709 5.7641 0.3356 1.6211 2.6455 2.2191 1.9781 4.1336 0.1085 -2.9227 -4.6077 -1.2132 1.6643 -0.1385 -0.0728 -5.1741 -5.3985 -0.8458 -6.2291 -5.8445 4.2524 2.3603 5.6166 -2.0202 2.8670 -0.5553 -0.9406 1.9137 2.3336 -0.9750 -1.4945 -3.0799 -1.1101 0.5954 -1.1780 2.8054 2.5682 5.3222 0.1370 3.1436 4.6525 0.9426 2.2388 3.8081
-1.6216 -3.2503 -7.8170 3.6783 4.4257 7.4130 -2.7974 3.2469 -0.5458 -0.1321 -5.0716 -8.1719 2.1640 5.7872 6.2529 -4.1584 1.5412 0.1107 0.3150 -4.9989 -3.8517 0.5735 -5.1654 -5.3379 -0.9895 -3.3782 -4.9964 -1.6612 0.9841 1.7038 -1.0592 -3.5484 -2.5931 0.7545 0.3493 1.9880 -0.2339 -1.3102 -2.1091 -2.2522 -2.1836 -1.0929 -0.4702 -0.0544 -1.4157 -2.4526 -1.0341 -0.4299 1.9911 0.4864 2.5031 3.6786 2.8707 4.9079 3.4676 1.7864 3.9608 -0.1639 2.2896 3.1665 1.3310 3.4509 4.6946 -0.1920 -3.5747 -3.7182 -1.7342 1.3084 0.2244 -0.2486 -4.1507 -5.9802 -0.6157 -4.2401 -7.3032 2.8405 4.6741 6.3427 -3.0403 1.9979 -0.0760 -0.3266 1.2825 2.2882 -1.1246 -2.3177 -1.9956 -1.5472 0.0912 -0.6186 2.6455 3.6507 5.2771 2.2485 1.5783 3.4281 1.1333 2.4766 3.7912
0.2062 -5.7335 -8.4103 1.2674 4.4482 7.9261 -3.6723 0.9224 1.1637 -2.0421 -4.9839 -8.2185 3.5893 4.1240 7.8987 -2.8952 2.8741 0.2937 0.5624 -4.0902 -4.4028 0.7346 -4.5264 -5.8430 -1.5850 -4.0474 -5.4661 -0.8005 0.5084 1.6783 -1.3540 -3.4635 -3.1452 1.3976 1.7259 1.3457 -0.6559 -1.1792 -2.6762 -2.1798 -2.3685 -1.2181 -0.7200 -0.0484 -1.7651 -2.2190 -1.3305 -0.3650 2.4337 2.4748 1.7729 3.4086 4.1691 5.0133 3.4329 3.7272 3.6276 0.2081 1.8201 3.4841 1.3152 2.9767 5.3133 -0.7444 -3.3185 -4.4246 -1.4230 0.9655 0.3778 -0.6253 -4.7523 -6.3085 -0.9018 -5.0996 -7.6144 2.4461 4.1441 7.2709 -2.7259 1.6966 0.5812 0.2509 1.4232 2.1982 -1.3843 -2.2892 -2.4321 -1.4751 -0.1098 -0.6510 2.4091 3.7798 5.8267 2.4351 2.9626 3.1440 1.3064 2.5982 4.0243
-3.3586 -4.8072 -7.3827 0.4778 4.0296 8.0429 -2.7261 2.2112 0.8894 -1.3826 -5.5797 -8.4578 2.7516 4.5863 8.1487 -3.0727 0.0123 1.3760 0.4960 -4.8197 -4.5924 0.2412 -4.9943 -6.0791 -1.7705 -4.1555 -5.0560 -0.0195 0.2568 1.3966 -0.2119 -2.5591 -4.1874 1.7905 2.0137 1.3438 -1.2569 -2.2760 -2.0148 0.1586 -0.5594 -2.9675 -1.4860 -1.4097 -0.8760 -0.1168 0.2731 -1.9475 2.5626 2.9654 1.9044 2.8066 4.6137 5.2985 3.0528 4.2917 3.9028 0.4664 1.6325 3.3707 1.0836 2.9047 5.3493 -0.6191 -3.9213 -4.0914 -0.9885 0.7401 0.3376 -1.1642 -4.6849 -6.2626 -1.8761 -5.0557 -7.3799 1.7159 4.2045 7.4530 -2.3728 0.9015 0.9150 0.7088 1.3609 2.0746 -0.4223 -1.8917 -3.0030 -0.9602 -0.1689 -0.8451 1.8868 3.9242 5.9990 2.3317 3.3322 3.2933 1.2740 2.6285 4.0479
1.1784 -6.1674 -4.2620 1.1506 2.9436 8.1097 -3.2370 0.1496 1.3697 0.0287 -7.0992 -6.1244 3.4730 3.2486 7.9807 -3.1246 2.4149 1.2032 -1.8711 -3.1547 -6.3580 -1.5312 -4.6294 -6.4991 -0.2858 -3.7103 -4.6600 -0.3225 0.4168 1.0143 -1.1325 -1.4731 -4.8304 1.4668 2.1994 1.0334 -1.8287 -1.6063 -2.5044 -1.0816 0.4775 -3.4891 -1.9216 -0.9290 -1.2270 -1.1814 1.1075 -2.3052 2.3103 3.0502 1.6508 3.0639 4.0015 5.2314 3.0971 3.9719 3.7785 0.4680 1.3837 3.1186 1.3721 2.2596 5.1935 -1.5075 -2.8430 -4.9179 -1.3961 1.0793 0.1782 -0.4448 -4.8387 -5.5571 0.1859 -6.0475 -5.3843 2.3161 3.1291 7.3906 -2.6720 1.3068 0.9489 0.5103 1.3830 1.7738 -1.4087 -0.9348 -3.5967 -1.5973 0.3749 -1.1185 2.2642 3.1537 5.9044 2.2936 3.1282 3.1037 1.3655 2.2534 3.8506
2.5379 -6.0417 -3.6207 5.1445 0.0814 4.7358 -4.4589 3.7505 -0.6199 3.1973 -3.9289 -2.7487 3.1612 -0.2721 5.9365 -5.1500 1.8173 0.3682 -1.0445 -3.8706 -4.7986 -0.0421 -4.8842 -4.2742 0.6831 -2.6906 -3.6078 -2.3478 2.1785 1.3256 -1.5784 -2.6565 -2.8102 -0.2355 3.5757 1.0751 -1.3023 -0.2454 -2.6571 -2.8308 -1.4424 -1.2140 -1.6220 0.9712 -1.9315 -3.0880 -0.3249 -0.5119 1.0264 3.8973 1.4268 3.6725 2.4154 3.6975 2.9944 3.3114 2.7724 -0.2871 1.5412 2.4367 1.7056 0.9947 3.7026 -0.7884 -2.6046 -3.9967 -2.7917 2.1849 -0.1212 1.0579 -4.0803 -3.7804 2.2589 -4.5911 -3.3493 3.8090 0.3371 4.9810 -4.2638 2.5078 -0.1138 -0.9001 2.3786 1.5808 -1.9061 -1.4089 -2.3348 -2.4796 0.9436 -0.8922 3.0572 1.2986 4.1288 1.7432 3.0354 2.3572 1.0680 1.8216 2.8580
2.0170 -6.6114 -3.9662 3.3930 -1.4315 4.1159 -5.0881 2.1115 -0.0192 3.0076 -5.1169 -2.4058 5.1842 -0.0004 3.6205 -4.3306 4.0122 -1.0144 -0.6677 -3.2727 -4.7107 -0.0603 -4.6293 -4.4049 1.0987 -2.9912 -3.0899 -2.5935 2.4493 1.4098 -1.1598 -2.4335 -2.5168 -0.7617 4.0132 2.1778 -0.8960 -0.0190 -2.3529 -2.6118 -1.1915 -1.1130 -1.3236 1.2134 -1.7128 -2.9811 -0.0551 -0.4956 0.4352 4.2689 2.7449 3.3693 2.1939 3.9357 2.5169 3.3384 3.6533 -0.4290 1.5858 2.1466 1.6846 0.7407 2.9663 -0.2072 -2.3732 -3.5762 -2.7353 2.4542 -0.0991 1.1582 -4.3180 -3.6821 2.0678 -5.2726 -3.2843 3.9045 -0.1905 3.7850 -4.1126 2.9441 -0.4593 -1.1995 2.6543 1.8766 -1.5262 -1.1812 -2.0802 -2.3311 1.2082 -0.8175 2.9796 0.9561 3.5774 1.3191 3.1565 3.0648 0.8796 1.7874 2.7263
-1.3510 -5.1765 -7.2029 4.1961 4.0792 6.4968 -3.9408 2.6149 -0.3984 -0.3623 -6.8226 -5.8024 3.7182 5.0427 4.4166 -2.2568 4.1447 -0.3420 1.2249 -3.4104 -3.5937 0.8977 -4.7851 -4.1436 -0.1352 -3.1400 -5.5565 -2.2150 1.2776 1.5335 -0.9375 -2.3971 -3.4384 -0.8265 -0.1536 3.0483 -0.0349 -0.4215 -2.3315 -2.3436 -1.0958 -2.0721 -0.2893 0.6698 -1.4012 -2.5712 -0.1034 -1.1965 0.2187 -0.4001 3.8634 3.0853 1.6308 5.2926 2.2119 0.5078 4.9751 -0.3014 2.2253 2.7925 1.6506 3.0614 3.9620 0.2351 -2.4582 -4.2459 -1.7717 1.8472 0.2003 0.2350 -4.5437 -5.4154 -0.4546 -5.5545 -6.0574 3.6165 4.0368 5.2436 -2.6511 2.9922 -0.2254 -1.0759 1.1680 2.4841 -1.0394 -1.2484 -2.6939 -1.5118 0.8336 -0.8570 2.8058 2.8590 4.8155 1.1282 0.6882 4.1952 0.8460 2.0320 3.6544
-1.9315 -5.5083 -8.3765 1.3736 2.5806 8.2045 -2.2337 -0.1219 1.8800 0.3790 -5.0110 -8.1161 3.1642 4.0900 8.1464 -2.6575 2.0429 1.3263 -2.0632 -4.8760 -4.0743 -2.2585 -5.2636 -5.5280 0.0042 -4.4943 -5.2429 0.4690 0.7020 0.8735 -1.1469 -2.6655 -4.2109 1.3292 3.0683 1.1144 -1.0513 -2.3998 -1.8008 -0.9920 -0.4903 -3.2826 -1.0511 -1.4817 -0.6756 -1.0588 0.3594 -2.2413 1.7616 4.1246 1.8328 2.3057 4.8718 5.5095 2.2273 5.0375 4.0643 0.9692 1.6494 3.0777 1.5477 2.5842 5.2416 -0.7954 -4.0368 -4.0330 -0.8744 0.8731 0.1931 -0.9511 -5.1225 -6.1423 -0.7525 -5.1754 -7.5052 2.1935 3.4703 7.5341 -2.0279 1.0064 1.1596 0.8908 1.8284 1.7459 -0.9632 -1.9288 -3.0625 -1.0798 -0.1480 -0.8764 2.0011 3.6855 6.0698 1.8270 4.0150 3.2837 1.4457 2.7345 3.9112
0.4189 -7.2606 -6.8448 5.1412 3.6822 6.0600 -3.1335 2.7427 -0.6146 -1.1240 -5.7599 -7.8548 4.8141 1.4132 5.5596 -1.1376 3.8178 -0.8062 0.1649 -4.6071 -3.4694 0.6525 -5.4717 -4.6145 -1.1362 -4.0679 -5.4017 -1.6311 1.2482 1.4164 -1.6133 -3.0478 -3.2807 -1.6165 3.0710 3.1462 -0.1934 -1.3063 -2.3547 -2.5961 -1.2599 -2.0869 -0.1112 -0.1330 -1.4958 -2.5108 -0.2170 -1.2426 -1.0873 3.7542 4.1810 2.2087 3.7418 6.0372 0.8418 4.0636 5.6610 0.3912 1.7175 2.7688 2.3111 2.1707 4.1876 -0.5463 -3.4437 -4.1414 -1.1678 1.5459 0.0029 -0.2434 -5.1723 -5.7166 -0.3883 -5.9913 -6.8135 4.3448 2.6268 5.6598 -1.7829 2.8136 -0.5352 -0.8782 2.0262 2.4415 -1.3953 -1.8310 -2.6763 -1.2226 0.3909 -0.9402 2.9174 2.8575 5.3113 0.2712 3.4497 4.6064 1.0378 2.4359 3.8504
1.4858 -6.8747 -3.0065 3.5867 -1.6335 3.5559 -5.0310 1.8656 -0.5271 1.1980 -5.6524 -0.9867 5.1573 0.0850 3.2527 -4.4901 4.0555 -0.8266 0.3501 -3.0450 -4.7881 0.5763 -4.5001 -4.4200 0.6966 -3.1721 -2.4293 -2.7238 2.1177 1.2384 0.2329 -1.0523 -3.4810 -1.1907 3.5884 2.5981 -1.7392 -0.7103 -2.0946 -0.2364 1.1111 -2.6269 -2.5054 0.2073 -1.2703 -0.9681 1.9679 -1.8914 -0.0893 3.8065 3.3450 3.0327 1.8460 4.2125 2.0362 2.9061 4.1761 -0.5021 1.3383 1.9146 1.6547 0.5529 2.6880 -0.1178 -2.4328 -3.4816 -2.7565 2.4920 -0.2301 1.0460 -4.4490 -3.0420 1.2066 -5.5884 -2.2811 3.9253 -0.2987 3.4395 -4.1590 2.9015 -0.5913 -1.4022 2.3373 1.8782 -0.6268 -0.2860 -2.7295 -2.1463 1.5030 -1.1696 2.8560 0.7331 3.4766 0.9239 2.7639 3.4304 0.7196 1.5159 2.6678
-0.1471 -6.3021 -3.2527 2.5963 5.3310 5.4044 -4.3307 1.6356 0.0201 -0.0550 -6.8165 -5.5732 3.5504 3.8516 6.9529 -3.2927 3.6222 0.4109 0.0367 -2.4917 -6.0759 -0.2196 -3.9753 -6.2935 -0.2213 -3.5057 -3.9441 -1.9910 0.6375 1.4370 0.2329 -1.1524 -4.1119 0.1093 -0.5052 2.1876 -1.7085 -0.7676 -2.7004 0.2681 0.6244 -2.5436 -2.2735 -0.0334 -1.5873 -0.2686 1.3228 -1.5267 1.3037 -0.5591 2.8099 3.3856 1.8187 4.8972 2.9657 0.6331 4.1635 -0.3679 1.7903 2.9027 1.2900 2.8818 4.2942 -0.5164 -2.2158 -4.6902 -1.9680 1.6113 0.2752 -0.3694 -4.5357 -4.9575 -0.1698 -5.8725 -4.6930 2.9448 4.0579 5.8166 -3.2405 2.4142 0.2242 -0.7235 0.6919 2.2111 -0.4756 -0.4648 -3.1561 -1.5878 0.9753 -1.0154 2.5697 2.8872 4.9747 1.7717 0.6096 3.5407 0.9021 1.8017 3.5984
-0.8104 -6.7962 -3.0264 4.7891 3.3138 6.4888 -2.0478 3.9646 -0.4934 0.1870 -7.4277 -5.0911 4.8069 1.2192 5.4378 -3.5890 2.2847 -0.5223 -0.7131 -3.3442 -6.2587 -0.0109 -4.6812 -6.1075 -0.9663 -4.0966 -3.9801 -1.3283 1.0159 0.9523 0.0058 -1.9439 -4.4331 -1.6575 2.5165 2.9402 -1.6403 -1.0842 -2.8722 0.4132 0.1151 -3.3088 -1.9372 -0.1332 -1.8203 0.1467 0.9870 -2.3169 -1.2884 3.0409 4.1258 1.8777 3.0856 6.2018 0.5025 3.3063 5.7800 0.5332 1.5177 2.4853 2.2747 1.8775 4.1359 -1.0067 -2.8550 -4.8545 -1.2126 1.7798 -0.3546 -0.2688 -5.1123 -4.7457 -0.2759 -6.4430 -4.3865 4.1617 2.2959 5.7964 -2.4267 2.6622 -0.4968 -0.7416 1.7355 2.1133 -0.5119 -0.9696 -3.6035 -1.0722 0.8584 -1.5263 2.7293 2.4148 5.4038 0.0723 2.8278 4.5971 1.0055 2.0680 3.7403
1.3921 -6.3591 -6.5223 4.0131 5.0902 4.1666 -4.1760 2.6870 -0.2077 -0.5046 -5.2887 -7.4756 4.5060 3.9339 6.1454 -2.4712 4.1745 -0.4467 0.6271 -3.7614 -3.1664 1.2723 -4.5100 -4.3152 -0.8251 -3.5934 -5.0611 -2.3128 1.5012 1.7005 -1.4685 -2.6732 -2.9478 -0.8056 -0.0093 3.0045 -0.4650 -0.6272 -2.1029 -2.7889 -1.1685 -1.6962 -0.6313 0.5560 -1.2736 -2.9307 -0.0969 -0.8981 0.3091 -0.3061 3.7003 3.3092 1.6099 4.9696 2.3965 0.5175 4.6752 -0.2742 2.3754 2.8097 1.7836 3.1348 3.8544 -0.3610 -2.8193 -3.8338 -1.9769 1.9305 0.2865 0.2787 -4.4849 -5.3725 0.3054 -5.3217 -6.4649 3.8895 3.9921 4.9974 -2.8706 3.0483 -0.1813 -1.0850 1.3390 2.5241 -1.5151 -1.4411 -2.3417 -1.8168 0.8173 -0.6881 2.9997 2.8662 4.5983 1.2546 0.7565 4.0036 0.9423 2.1305 3.5597
1.9208 -5.4631 -5.9856 3.9657 4.3310 6.8083 -3.0391 3.6670 0.1446 0.4197 -4.7940 -7.7033 2.8900 5.6449 5.1935 -4.3504 1.8141 -0.0575 -2.1454 -3.5367 -4.4149 -1.5526 -3.9050 -5.7596 -0.0071 -4.5632 -4.0429 -2.0096 0.9763 1.7202 -0.3403 -2.2892 -3.4250 0.0955 -0.1964 2.4190 -1.9312 -1.6272 -1.7162 -0.0444 -0.2283 -2.3021 -2.3797 -0.5853 -0.8165 -0.4822 0.7555 -1.4960 1.3148 -0.2578 2.9901 3.5763 2.1697 4.8242 3.0819 0.9570 4.1849 -0.2661 2.1567 3.0040 1.4877 3.2641 4.2579 -0.9802 -3.5642 -3.4376 -1.9580 1.5981 0.3366 -0.3636 -4.6854 -5.4520 0.5861 -4.9299 -6.4247 3.2461 4.4695 5.6374 -3.2526 2.3281 0.0962 -0.6904 1.0325 2.3993 -0.7842 -1.4765 -2.4098 -1.6975 0.5727 -0.7154 2.8010 3.2699 4.8720 1.8573 0.9357 3.6238 1.0316 2.1596 3.6471
1.7380 -6.5944 -4.4887 5.1969 3.1682 6.2186 -3.4615 2.6354 -0.4296 0.6160 -7.0930 -6.5241 4.6258 0.9445 5.7453 -1.6424 3.9409 -0.8356 -1.3658 -3.3670 -5.8753 -1.1769 -4.8377 -6.1811 -0.0259 -4.3820 -4.1237 -1.5824 1.2537 1.2946 -1.7635 -2.8416 -3.5763 -1.4153 3.2000 2.8746 -0.4261 -0.9676 -2.7828 -2.7217 -1.2725 -2.0861 -0.3443 0.1782 -1.8893 -2.6315 -0.2381 -1.2315 -0.8530 3.8932 3.8839 2.3160 3.6264 5.9305 1.0258 4.0841 5.4411 0.4281 1.5959 2.6976 2.3096 1.9087 4.2136 -0.7327 -3.1021 -4.5252 -1.3128 1.6537 -0.1433 -0.3163 -5.3804 -5.1420 0.6204 -6.3471 -5.4638 4.3012 2.2081 5.7869 -2.1291 2.8595 -0.5348 -0.7747 2.0320 2.2762 -1.5812 -1.6563 -2.9026 -1.3985 0.5329 -1.1274 2.9390 2.5978 5.3260 0.4353 3.4618 4.4033 1.1034 2.3046 3.7712
1.1319 -6.1891 -2.0922 5.3721 1.7957 5.0727 -2.2860 4.3266 -1.1602 1.0564 -7.1467 -4.2675 4.4360 -0.2345 4.3634 -4.1258 3.0334 -0.7850 -0.4732 -3.4674 -5.5608 0.5512 -4.5843 -5.5074 0.1891 -3.7441 -3.2957 -2.2395 1.7137 1.0993 -1.5223 -2.1678 -3.8987 -1.5909 3.2008 2.9986 -0.3909 -0.3799 -2.6911 -2.7782 -0.7473 -2.5021 -0.5267 0.7308 -1.7619 -2.9000 0.2759 -1.6408 -0.8048 3.5823 4.0233 2.5497 2.5434 5.4143 1.2736 3.2187 5.2559 -0.0229 1.4973 2.1879 2.0970 1.2956 3.3781 -0.2480 -2.6777 -4.2849 -1.8958 2.1867 -0.2974 0.8577 -4.7693 -4.0917 0.9987 -6.0479 -3.5829 4.3001 1.0304 4.6536 -2.9137 3.1896 -0.7711 -1.2063 2.1336 2.0827 -1.4758 -1.1029 -3.0382 -1.7336 1.0608 -1.2614 2.9529 1.6438 4.4987 0.4736 2.9166 4.2166 0.8942 1.8832 3.2461
-1.3621 -6.9082 -7.4610 4.9595 2.0381 5.7477 -3.1313 2.2807 -0.5626 -0.3980 -7.5886 -5.3965 4.5849 4.2484 6.4451 -1.4423 3.8057 -0.5696 -1.1024 -2.9560 -5.7705 -1.5924 -4.2344 -6.4249 -0.3441 -4.7860 -4.4489 -1.2773 0.9176 1.2939 0.2243 -2.5432 -3.8336 -1.7077 2.4227 3.2372 -1.4789 -1.2896 -2.6316 0.8810 -0.8335 -2.3369 -1.7649 -0.2415 -1.6699 0.6109 0.1745 -1.4886 -1.3755 3.0582 4.3767 1.7898 3.6048 6.3561 0.3929 3.6239 5.9628 0.5815 1.6893 2.7525 2.3157 2.4033 4.3078 -0.8374 -3.3526 -4.3284 -0.9374 1.5054 -0.0587 -1.0546 -5.3086 -5.6061 -0.8864 -6.5945 -6.0696 4.1387 3.1331 5.9367 -1.8361 2.6555 -0.4341 -0.7250 1.7148 2.4239 -0.2009 -1.6077 -2.9235 -0.7656 0.4808 -1.1255 2.7095 3.0577 5.5406 0.0123 3.0483 4.8074 1.0194 2.3816 3.9522
0.9133 -6.4941 -5.8776 3.7846 3.6232 7.6654 -3.9804 1.3149 0.9915 2.0837 -4.8793 -4.5788 1.6132 4.4283 7.3193 -2.9333 3.2597 0.4473 -2.0426 -3.2868 -6.1777 -1.2756 -4.5943 -6.0794 0.0261 -2.8703 -5.0327 -1.2183 0.4539 1.4880 -2.0615 -2.6338 -3.8822 1.2698 0.8091 1.2821 -1.1283 -0.5371 -3.0772 -2.8182 -1.7413 -1.8334 -1.0756 0.4381 -2.0026 -2.7541 -0.8506 -0.8299 2.4678 1.2463 1.7181 3.7346 3.1090 4.7663 3.7011 2.4351 3.4752 0.0431 1.6528 3.2272 1.3501 2.7213 4.9759 -1.4150 -2.3830 -5.1286 -1.7153 1.1887 0.2626 0.0396 -4.2076 -5.6006 1.0262 -5.1163 -5.2902 2.6664 3.7981 6.8728 -2.9236 2.0406 0.5534 0.0370 1.0396 2.0289 -2.0003 -1.5660 -3.0207 -1.8662 0.3004 -0.9211 2.6084 3.2254 5.4953 2.5419 1.9480 2.9915 1.3012 2.1277 3.7720
0.5613 -6.7931 -4.1905 4.0409 3.7502 7.0237 -4.0551 2.6858 -0.0316 0.8506 -6.5174 -6.5333 3.1668 5.2023 5.4073 -2.3735 4.2105 -0.1775 -0.6452 -2.5495 -5.8561 0.2428 -3.6670 -6.3698 -0.1617 -3.9960 -4.0280 -2.0768 1.2609 1.5602 -1.6523 -2.1451 -3.7596 -0.2253 -0.1948 2.4188 -0.4830 -0.3743 -2.5594 -2.7913 -0.9345 -2.0920 -0.5797 0.6804 -1.5599 -2.8848 0.0544 -1.1875 0.9286 -0.4298 3.0745 3.3982 1.6510 5.0589 2.7712 0.5196 4.3883 -0.2671 2.1937 2.9665 1.5506 3.0438 4.3331 -0.4154 -2.5311 -4.3546 -1.8246 1.8913 0.2058 0.4339 -4.5580 -5.2339 0.6003 -5.9176 -5.4114 3.3684 3.9866 5.8402 -2.7513 3.0547 -0.0409 -0.8176 1.1361 2.3415 -1.5445 -1.1720 -2.8006 -1.7400 0.9108 -0.9128 2.8016 2.8585 5.0444 1.6011 0.6771 3.7395 0.9727 2.0126 3.6966
0.6518 -6.4040 -7.2986 4.9886 1.6584 5.3595 -2.3405 2.8900 -0.9663 1.1956 -4.0953 -7.1276 5.1198 3.9921 5.5750 -0.1028 3.2959 -0.8754 -1.8352 -5.4799 -3.8324 -0.9407 -6.0788 -4.8999 -0.7192 -3.6953 -4.9647 -1.6709 1.2467 1.3874 -2.2643 -3.2397 -3.1720 -1.6932 2.9777 3.1999 -0.5740 -2.0056 -1.9235 -2.8756 -1.2629 -2.0278 -0.2697 -0.8325 -1.1193 -2.5930 -0.1828 -1.2789 -1.1608 3.6700 4.2266 2.2242 3.8647 5.9065 0.8181 4.0887 5.6096 0.3776 1.7696 2.6990 2.3381 2.3428 4.0165 -1.2198 -4.1148 -3.5882 -0.9597 1.2413 0.0482 -0.5308 -4.9377 -5.7074 0.4528 -5.0533 -6.6692 4.4129 2.9144 5.3754 -1.0612 2.5659 -0.6622 -0.9236 1.9998 2.4365 -1.8314 -2.2155 -2.3663 -1.2348 0.0563 -0.8105 2.9553 3.0558 5.1176 0.2358 3.4549 4.5739 1.0304 2.5130 3.7587
-2.6590 -5.0120 -8.0648 -0.3309 4.5753 7.4501 -2.5843 1.8348 1.0364 -3.7762 -4.6077 -6.0032 1.9008 4.8998 8.0832 -2.8254 -0.4193 1.2591 0.9005 -4.2812 -5.6215 -0.1586 -4.3979 -6.7046 -1.2587 -4.3095 -4.5728 0.1975 -0.0155 1.3945 0.1275 -2.3539 -4.4322 2.2227 1.4662 1.5978 -0.5741 -2.3977 -2.1128 0.1851 -0.3543 -3.1592 -0.8754 -1.6367 -0.9191 -0.1372 0.3607 -2.0656 2.9737 2.4086 2.2038 2.6470 4.5568 5.3148 3.1614 3.9959 4.0714 0.4493 1.5335 3.2859 0.7588 3.0451 5.1583 0.1601 -3.7812 -4.3920 -0.7648 0.5215 0.3514 -1.3954 -4.6316 -5.9822 -2.6268 -4.7117 -6.5933 1.0255 4.5593 7.1783 -2.1662 0.5500 0.9127 0.9234 1.0570 2.1202 -0.0141 -1.7956 -3.1821 -0.6837 -0.3028 -0.8904 1.5014 4.0855 5.8443 2.4866 3.0186 3.4344 1.2096 2.5400 3.9991
-3.2792 -5.9796 -6.7330 2.6683 4.1641 8.4869 -2.2363 0.0526 1.6710 -1.1812 -7.0444 -7.0699 0.7357 2.8597 8.2564 -2.3868 2.2041 0.9491 0.4947 -3.2324 -5.8115 0.2572 -4.6258 -6.3584 -1.8744 -3.5726 -6.0389 0.6401 0.5509 0.9955 -0.9258 -3.1537 -3.8847 1.6750 2.8446 1.2620 -0.5753 -0.8084 -3.3132 -1.1572 -2.4565 -1.6398 -0.5135 0.1899 -2.2555 -1.0745 -1.5381 -0.6616 2.0997 3.8989 1.9875 2.2042 4.8091 5.6625 2.3424 4.8941 4.2161 0.9156 1.5755 3.2143 1.2728 2.5840 5.3984 -0.8425 -2.7754 -5.2562 -0.5799 0.8260 0.1392 -1.1674 -4.6923 -6.6538 -1.7793 -5.9230 -6.8129 1.6884 3.5697 7.7148 -1.8339 1.1123 0.9300 1.0465 1.6802 1.8780 -0.9130 -2.0831 -3.0232 -0.7574 -0.1504 -0.9742 1.7126 3.6908 6.2286 1.9555 3.8663 3.4360 1.3691 2.6631 4.0605
1.2991 -6.2333 -3.2249 4.3385 3.3338 6.3358 -4.0501 2.9701 -0.5763 0.2382 -6.7982 -5.2761 4.1208 4.3500 4.2332 -2.3220 4.4456 -0.4557 -0.1243 -2.4607 -5.7723 -0.2807 -3.9678 -5.8737 0.7650 -3.4553 -3.7727 -2.4106 1.5602 1.3893 -1.1599 -2.0536 -3.6534 -1.1798 -0.0847 2.8145 -0.2135 -0.1438 -2.4683 -2.5416 -0.7724 -2.2389 -0.4492 0.9371 -1.5238 -2.7572 0.2248 -1.3663 -0.1514 -0.4943 3.5824 2.9659 1.0957 5.0148 1.9548 0.1074 4.6757 -0.3787 2.2253 2.6472 1.6885 2.7641 3.7978 0.1050 -2.1872 -4.2948 -1.9240 2.1288 0.0709 0.5065 -4.4837 -4.7686 0.6180 -5.8303 -4.5024 3.8073 3.3916 5.0618 -2.7547 3.3052 -0.3633 -1.2778 1.2805 2.3120 -1.2248 -0.9669 -2.8185 -1.6753 1.1245 -0.9967 2.8249 2.3707 4.6075 0.8865 0.4613 3.9368 0.7566 1.8557 3.4671
1.2911 -5.6553 -6.9450 1.0509 3.1081 8.2451 -2.4290 0.0663 1.9206 -0.7248 -6.8995 -7.1574 3.1142 4.2159 8.1575 -2.6368 2.1720 1.0855 -2.6597 -3.1851 -5.9131 -2.3408 -4.5936 -6.3783 -0.2879 -3.5548 -5.7132 0.3748 0.4187 1.0916 -1.6028 -3.1387 -3.7660 1.6151 2.6199 1.1610 -1.0722 -0.8311 -3.1846 -1.6344 -2.4770 -1.4988 -0.9153 0.1501 -2.1229 -1.4828 -1.5690 -0.5195 2.1761 3.6681 1.7964 2.5890 4.7659 5.3931 2.6466 4.7566 3.9403 0.8576 1.5394 3.2263 1.4456 2.6257 5.3229 -1.4362 -2.7472 -5.1260 -0.8535 0.7640 0.2747 -0.8946 -4.6018 -6.5248 -0.2065 -5.7502 -6.8568 2.0831 3.7032 7.5440 -2.0708 1.0876 1.1058 0.9201 1.5574 1.8807 -1.4214 -2.1004 -2.8858 -1.1161 -0.1947 -0.8357 2.0419 3.7285 6.0541 2.1179 3.7284 3.2496 1.4616 2.6228 3.9787
-3.2587 -6.3713 -5.4476 1.9520 3.7717 8.5954 -1.4744 -0.6613 1.7012 -1.5319 -7.1983 -6.8581 -0.1479 2.9561 7.9399 -2.2729 1.4664 1.5953 0.2805 -3.2865 -6.1880 -0.0402 -4.7060 -6.6153 -1.8236 -3.9024 -5.2364 0.9772 0.6808 0.7103 -0.9284 -1.7226 -4.8517 2.1410 2.8473 1.2574 -0.5506 -1.9501 -2.4623 -0.9709 0.2078 -3.4788 -0.4580 -1.2869 -1.1764 -0.9279 0.8156 -2.2795 2.5256 3.8332 2.0928 2.0444 4.6287 5.7620 2.4563 4.7349 4.3710 1.0204 1.5558 3.0115 1.0325 2.4800 5.2567 -0.5677 -3.0973 -4.9469 -0.4314 0.8352 0.1668 -1.4332 -4.8992 -6.2278 -1.9860 -6.1652 -6.2205 1.0305 3.4218 7.6273 -1.5057 0.5980 1.2019 1.3481 1.7124 1.7150 -0.7549 -1.2268 -3.5825 -0.6471 0.0442 -1.0775 1.3758 3.5400 6.1848 2.1439 3.7603 3.4961 1.3832 2.5839 3.9638
-3.1640 -6.0946 -6.9538 2.2023 4.5567 8.3827 -1.8696 -0.4494 1.5704 -3.9099 -3.8864 -6.4856 0.4151 3.0525 8.1796 -2.3029 1.6238 0.7406 0.7336 -4.4578 -5.8983 -0.4700 -5.2471 -6.3824 -1.2030 -3.0425 -5.7769 0.9329 0.4585 1.0073 -0.0141 -3.6337 -3.7756 1.5535 2.9033 1.2066 0.0670 -1.2507 -3.2783 -0.1645 -2.9064 -1.5284 -0.0536 -0.2134 -2.2690 -0.2893 -1.9448 -0.5970 1.7760 4.0368 1.9017 1.6458 5.0667 5.5412 1.7990 5.1277 4.0960 0.9736 1.5856 3.1890 1.1103 2.7067 5.3428 0.1618 -3.2706 -5.1435 -0.2686 0.5071 0.0862 -1.5601 -4.2871 -6.4387 -2.8788 -4.6664 -6.5836 1.3019 3.8330 7.6245 -1.5912 0.6301 0.8015 1.1167 1.6698 1.8527 0.0259 -2.5532 -2.9254 -0.2430 -0.5377 -0.9754 1.3413 3.8990 6.1371 1.6072 4.0248 3.3474 1.2185 2.7597 4.0044
-1.0851 -6.8155 -4.7825 2.0103 5.0554 7.8371 -3.2935 0.3912 0.9101 -1.7139 -6.6861 -7.0732 0.4429 5.7925 6.2567 -2.5845 2.5519 0.9929 -0.6158 -2.4810 -6.6216 -1.2023 -3.7924 -7.1166 -0.8061 -3.9429 -4.7541 -0.4773 -0.1046 1.4968 0.1218 -1.7455 -4.4849 1.8807 0.1027 2.3446 -1.5840 -1.0192 -2.9082 0.7442 -0.4034 -2.6434 -1.8660 -0.3506 -1.6516 0.4715 0.2535 -1.5032 2.8568 0.6646 3.0862 3.0839 3.5295 5.5538 3.4614 2.4171 4.6938 0.1290 1.5888 3.1940 0.7844 3.2569 4.8278 -0.9119 -2.4760 -5.1336 -1.0062 0.8182 0.4145 -1.2757 -4.6422 -5.9374 -1.3626 -6.0131 -6.0226 1.4016 4.9753 6.5995 -2.3635 1.3679 0.7776 0.5055 0.5898 2.3737 -0.3175 -1.0783 -3.3694 -0.8791 0.2474 -0.9550 1.7966 3.9169 5.6289 2.5285 1.7869 3.9543 1.1257 2.2442 4.0149
0.7762 -5.4123 -7.8377 0.2120 5.8011 6.4717 -3.1078 -0.0440 1.5948 -1.3659 -6.4405 -7.9266 2.1985 5.3781 7.6414 -2.5910 2.1713 1.5761 -2.4408 -3.4076 -5.0264 -2.3823 -4.6990 -5.8186 -0.1758 -3.7728 -5.6481 -0.1412 -0.1817 1.6722 -0.7843 -1.8170 -4.4063 2.2225 0.5127 2.1533 -1.5033 -1.9837 -2.0949 -0.3505 -0.0246 -2.9260 -1.6038 -1.3356 -0.8019 -0.5089 0.6047 -1.7482 3.1664 1.2546 2.7657 3.1905 4.0886 5.2740 3.6449 3.0796 4.3299 0.3589 1.5969 3.3156 0.9085 3.3522 4.9009 -1.0231 -3.2161 -4.5166 -0.9998 0.5899 0.6900 -0.9829 -4.8557 -6.1926 -0.6204 -5.5772 -7.3098 1.4356 5.1712 6.6037 -2.3100 1.0115 1.3054 0.7994 0.7071 2.4059 -0.8386 -1.3827 -3.1038 -1.1335 -0.0844 -0.6287 1.8803 4.2017 5.5628 2.7547 2.2769 3.7167 1.3155 2.4368 4.0060
0.1250 -5.4266 -8.2528 3.3532 5.7487 6.6098 -3.1259 2.2439 -0.0543 0.0439 -3.0623 -8.0103 2.9132 6.3128 4.3757 -1.1249 3.2828 -0.3579 -1.0761 -5.4044 -4.0772 -0.3973 -5.6722 -5.4094 -0.8494 -3.3188 -5.2130 -1.5159 0.6304 1.7980 -1.9381 -3.4331 -3.0754 0.2197 -0.1420 3.4377 -0.4019 -1.8106 -2.1070 -2.7632 -1.8198 -1.5630 -0.2426 -0.6547 -1.2416 -2.6145 -0.7452 -0.7704 1.2451 0.0400 4.2931 3.2134 3.0015 5.5807 2.7693 1.6354 5.3562 -0.0528 2.2473 2.9669 1.4494 3.7784 4.1027 -0.8298 -3.9280 -3.8191 -1.1522 0.9834 0.3700 -0.3607 -4.3812 -6.0725 -0.0822 -4.2024 -7.4069 2.9663 5.4191 5.3252 -1.7720 2.2842 -0.0723 -0.4142 0.9702 2.7389 -1.6163 -2.3800 -2.2572 -1.3056 -0.1312 -0.6010 2.5652 4.0252 4.9947 1.7258 1.3908 4.5411 1.0461 2.5187 3.8705
0.0747 -6.2648 -8.0669 1.8369 6.6075 5.0449 -3.2251 1.8347 0.6324 -1.8622 -4.9317 -8.4184 2.8366 5.7859 6.9998 -1.4815 3.2465 0.2598 0.2132 -4.2785 -4.2429 0.5514 -4.8559 -5.6029 -1.5333 -3.6624 -5.7577 -1.0874 0.2466 1.8988 -1.6765 -3.0896 -3.4375 1.0047 -0.2133 3.2109 -0.3146 -1.3065 -2.5057 -2.5630 -1.7347 -1.7168 -0.1835 -0.2878 -1.4766 -2.4232 -0.8259 -0.7364 2.0476 0.1341 3.9911 3.2866 3.3191 5.6096 3.2060 1.9307 5.1863 0.0260 2.0315 3.2057 1.1926 3.7523 4.4596 -0.7724 -3.1600 -4.5378 -1.0413 0.8879 0.5255 -0.6013 -4.5503 -6.4310 -0.8754 -5.1894 -7.6187 2.3480 5.5750 5.8089 -1.9155 2.1146 0.4309 0.0002 0.7535 2.7809 -1.4738 -1.9834 -2.6473 -1.1903 -0.0601 -0.6104 2.3060 4.1818 5.2840 2.1685 1.5144 4.4361 1.1213 2.4782 4.0416

>  <OB_ATOM_TYPES> (1faxA1)
C.3 N.pl3 O.co2 N.2 N.pl3 O.co2 C.3 C.3 C.3 C.3 O.3 C.ar C.ar C.ar C.ar C.ar C.ar C.ar C.ar C.ar C.ar C.3 C.3 N.pl3 C.2 C.2 C.2 C.ar C.ar C.ar C.ar C.ar C.ar

>  <ENSEMBLE_RMSD> (1faxA1)
1.247 1.389 1.523 1.524 1.768 1.786 1.819 1.855 1.857 1.908 2.041 2.089 2.104 2.109 2.132 2.134 2.170 2.180 2.196 2.218 2.258 2.261 2.294 2.297 2.303 2.307 2.344 2.348 2.349 2.357 2.383 2.421 2.422 2.423 2.457 2.460 2.481 2.541 2.547 2.579 2.587 2.587 2.589 2.667 2.668 2.775 2.791 2.800 2.875 2.876

$$$$
