
 OpenBabel03071213D

 19 19  0  0  0  0  0  0  0  0999 V2000
   36.8590   18.1890   54.0880 C   0  0  0  0  0
   30.6450   22.5370   45.3490 C   0  0  0  0  0
   33.9620   19.1130   53.5790 C   0  0  0  0  0
   31.7720   17.9200   44.8030 C   0  0  0  0  0
   30.7070   20.0310   49.8420 C   0  0  0  0  0
   30.4390   20.8280   42.7660 C   0  0  0  0  0
   36.4190   18.2780   52.7090 C   0  0  0  0  0
   33.4070   19.2100   51.0450 C   0  0  0  0  0
   29.5290   21.5570   43.5780 C   0  0  0  0  0
   30.8050   19.5050   43.0610 C   0  0  0  0  0
   33.2670   19.2730   49.5940 C   0  0  0  0  0
   34.7020   18.8810   51.2570 C   0  0  0  0  0
   31.7140   19.6450   47.7430 C   0  0  0  0  0
   30.6200   19.9630   47.0570 C   0  0  0  0  0
   29.7320   21.4670   45.0740 C   0  0  0  0  0
   35.1150   18.8110   52.6660 C   0  0  0  0  0
   31.7580   19.5480   49.0990 C   0  0  0  0  0
   30.9590   19.2630   44.5570 C   0  0  0  0  0
   30.5210   20.2020   45.5510 C   0  0  0  0  0
  1  7  1  0  0  0
  2 15  1  0  0  0
  3 16  1  0  0  0
  4 18  1  0  0  0
  5 17  2  0  0  0
  6  9  1  0  0  0
  6 10  1  0  0  0
  7 16  1  0  0  0
  8 11  1  0  0  0
  8 12  1  0  0  0
  9 15  1  0  0  0
 10 18  1  0  0  0
 11 17  1  0  0  0
 12 16  2  0  0  0
 13 14  2  0  0  0
 13 17  1  0  0  0
 14 19  1  0  0  0
 15 19  1  0  0  0
 18 19  2  0  0  0
M  END
>  <MOLID> (1fenA1)
1fenA1

>  <SMILES_CANONICAL> (1fenA1)
CC/C(=C/CCC(=C)/C=C/C1=C(C)CCC[C@@H]1C)/C	

>  <FINGERPRINT> (1fenA1)
0000000000000000000001000000000000000001000001000000000000100000000000000000000000000000000000000000000000000000000000000000000001000000000000010000000000000000000000000000000000000000000000010000000000000000000000000000000000000000000000000000010000000010000000000000000001000000000000000000000000010000000000000000000000000000000000000000000000000000010000000100000000000000000000000000000000000010000000000000000000000000000000000000000000000100000000000000000000000100000000000000000000000000000000000000010000000000000000000000000000000000000000000000000000000000001000000000001000000000001000001000000000000000000000000000000000000001000000000000000000000000000000000000000000000000000000000000000000000000000000001000000000000000000000000000000000000000000100100000000000100000000000000000000000000000000000000000000000000000000000000100000001000010000000001000000000000000000000000000000000000000000000000000000000000000000000000000000000000000000000000010010010000010000000000000000000000000000000000000000000000000

>  <MACCS166> (1fenA1)
000000000000000000000000000000000100000000000000010000000000000000000000000100000000000000000000001000000001000001110100000000011000000000001000001011000010000100101000

>  <OB_MW> (1fenA1)
258.235

>  <OB_logP> (1fenA1)
6.3718

>  <OB_PSA> (1fenA1)
0

>  <OB_MR> (1fenA1)
89.437

>  <OB_ATOMIC_CHARGES> (1fenA1)
0.0046637478 0.0046643489 0.0260154679 0.02602539 -0.0045785607 0.0046638821 0.0217099046 0.030053406 0.0046643416 0.0217197007 0.0309951256 -0.0342481633 -0.0045983431 -0.0052165432 0.0217373557 -0.0481626794 -0.021869934 -0.0478644412 -0.030374006

>  <MCT_HBD> (1fenA1)
0

>  <MCT_HBA> (1fenA1)
0

>  <ENSEMBLE_TOTAL> (1fenA1)
50

>  <ENSEMBLE_COORDS> (1fenA1)
4.6214 -0.7997 5.4856 -0.2039 2.4079 -3.1536 1.4779 -1.8657 4.9831 -1.2166 -2.0577 -3.6262 -1.1018 -1.1142 1.7061 -2.6125 1.3123 -4.9144 3.8885 -1.4440 4.3340 0.7209 0.5081 3.3136 -2.6318 2.0132 -3.5724 -1.9416 -0.0476 -4.9440 0.5380 0.7713 1.8341 2.1142 0.0499 3.5435 -0.8314 0.3779 -0.1644 -0.7560 -0.3000 -1.3129 -1.4484 1.6853 -2.6884 2.4681 -1.0062 4.2809 -0.4298 -0.1156 1.1232 -1.4464 -0.5860 -3.6416 -1.2088 0.2108 -2.5862
4.0673 -1.9495 5.7400 -0.2823 2.4825 -2.3190 2.3239 0.8324 5.3238 -1.2144 -1.9034 -4.0148 -1.1528 -1.7203 1.3456 -2.9297 1.3710 -4.7044 4.1137 -0.8486 4.7055 0.6155 -0.3169 3.1587 -2.2411 2.3512 -3.7835 -1.9968 0.2373 -5.0735 0.5286 0.0947 1.7054 1.9877 -0.7859 3.4771 -0.9465 0.0457 -0.2706 -0.8313 -0.4494 -1.5060 -1.5508 1.7036 -2.5971 2.7541 -0.2978 4.4572 -0.5078 -0.6312 0.9152 -1.4697 -0.4442 -3.8533 -1.2676 0.2286 -2.7060
4.7889 0.4070 4.6047 0.0781 2.2419 -2.3875 2.0087 -1.0930 5.6349 -1.7269 -2.0067 -3.6335 -2.0751 -0.9236 1.7526 -1.4528 1.5472 -5.0925 4.2210 -0.9794 4.4188 0.6339 -0.8990 2.9974 -1.9053 2.3169 -3.8708 -1.8638 0.0930 -4.9937 0.1580 0.1343 2.0019 2.1072 -0.8504 3.1684 -1.1170 0.2690 -0.0987 -1.2357 -0.3999 -1.2480 -1.3266 1.7211 -2.6030 2.7357 -0.9431 4.3454 -1.0094 -0.3354 1.1979 -1.6341 -0.5180 -3.6470 -1.3846 0.2180 -2.5474
3.5230 -0.7207 6.2243 -0.9626 2.7971 -2.4370 3.3425 -2.3716 3.2660 -0.3301 -1.8597 -3.2723 -1.4336 0.9329 2.3012 -2.6681 0.5936 -4.9055 3.7474 -0.3760 4.7728 0.6536 -1.1807 2.6236 -2.5001 1.8623 -4.1008 -1.4053 -0.2420 -4.8761 0.5943 -0.2244 1.4529 1.6178 -0.6209 3.6017 -1.1301 0.7483 -0.0535 -0.9725 -0.0520 -1.1076 -1.9113 1.6484 -2.7180 2.8174 -1.1293 3.8920 -0.7405 0.4159 1.2825 -0.9979 -0.5426 -3.4728 -1.2439 0.3215 -2.4734
3.7311 -2.5467 3.4840 -0.7916 2.6233 -2.9607 1.2779 -1.2924 5.2498 -0.3487 -1.9641 -3.4797 -0.8095 -0.9094 1.9030 -2.5384 0.9190 -4.8944 3.6746 -1.3766 4.4395 0.8372 1.0058 3.3565 -2.9301 1.4709 -3.5406 -1.6425 -0.3040 -4.8402 0.5925 1.1645 1.8696 2.1354 0.3151 3.5624 -0.8265 0.5054 -0.0413 -0.5302 -0.1425 -1.1723 -1.7615 1.5260 -2.5808 2.3402 -0.7232 4.3777 -0.3265 0.1580 1.2585 -1.0171 -0.6326 -3.5216 -1.0661 0.2036 -2.4694
4.8825 -0.3175 3.4002 -0.2036 2.4367 -2.1768 2.3383 -0.4957 5.5470 -0.9973 -2.1042 -3.4411 -2.1708 -0.9907 1.8176 -1.2325 1.4023 -5.0109 3.9300 -1.4163 3.8085 0.2535 -0.3041 3.4250 -1.9647 2.1001 -3.8857 -1.3856 -0.1004 -4.8980 -0.2512 0.5228 2.2642 1.6402 -0.7769 3.1856 -1.2434 0.3230 0.0318 -1.1222 -0.3895 -1.0903 -1.4477 1.6510 -2.5335 2.5842 -0.8680 4.1276 -1.1860 -0.2096 1.3611 -1.1985 -0.6279 -3.5102 -1.2253 0.1650 -2.4222
3.9645 -0.5908 6.3263 -0.1802 2.3355 -3.2635 1.0666 -1.4566 4.8583 -1.7686 -1.9702 -3.7920 -0.4854 -1.5406 1.4118 -2.9668 1.6321 -4.5757 3.5847 -1.3527 5.0805 1.2895 0.6291 2.6928 -2.6741 2.1973 -3.2023 -2.5331 0.1958 -4.7996 1.4061 0.0545 1.2951 2.4249 0.1164 3.5010 -0.4591 0.1275 -0.3372 -0.6477 -0.4492 -1.5282 -1.3796 1.6910 -2.6057 2.3461 -0.8104 4.4607 0.1248 -0.5204 0.8010 -1.8269 -0.4861 -3.6729 -1.2857 0.1980 -2.6503
4.5714 -1.3153 3.4568 0.0374 2.2920 -3.0541 1.6436 -2.0091 4.6493 -1.2138 -2.1163 -3.4905 -1.2968 -1.1646 1.7904 -2.3529 1.3023 -4.8986 3.8492 -0.7639 4.6658 0.3722 0.4726 3.5441 -2.3898 2.0293 -3.5709 -1.7649 -0.0955 -4.8732 0.3306 0.7150 2.0492 1.7960 0.3664 3.9513 -0.8935 0.3395 -0.0479 -0.7450 -0.3386 -1.1897 -1.2659 1.6524 -2.6300 2.3835 -0.7400 4.4155 -0.5872 -0.1609 1.2639 -1.3566 -0.6342 -3.5410 -1.1173 0.1691 -2.4904
3.9467 0.9517 5.4826 0.3835 1.9790 -2.8710 1.5196 -1.2594 5.3870 -2.2380 -1.8293 -3.7310 -1.5084 -1.0815 1.6902 -2.7498 1.7536 -4.6331 3.9309 -0.5280 5.1810 1.4240 -1.4289 2.3799 -1.8755 2.5384 -3.6793 -2.2043 0.3762 -4.9410 0.8169 -0.2470 1.6537 2.6081 -1.0041 3.1696 -0.7180 0.1251 -0.2404 -1.1270 -0.4482 -1.3760 -1.0932 1.7200 -2.6678 2.6660 -0.9183 4.5026 -0.4849 -0.5687 0.9976 -1.9115 -0.3778 -3.6862 -1.3853 0.2472 -2.6183
3.9651 -0.5503 6.2640 0.0377 2.1763 -2.8048 1.2539 -1.6007 4.7568 -2.2650 -1.9190 -3.6060 -0.6744 -1.3178 1.6029 -2.3594 1.7081 -4.8690 2.7989 0.1905 5.6532 2.2739 -0.9795 2.0117 -2.3157 2.4211 -3.5348 -2.8107 0.2731 -4.6942 1.4132 -0.0363 1.2027 2.7228 -0.2893 3.2480 -0.4825 0.0812 -0.3355 -0.9130 -0.4954 -1.4593 -1.3858 1.7212 -2.5628 2.2792 -0.5593 4.4794 0.1040 -0.6100 0.7768 -2.1453 -0.4335 -3.5557 -1.4970 0.2196 -2.5732
2.6711 -2.1328 6.0580 -1.9353 2.7287 -2.3801 3.8896 -1.5216 2.9363 0.5299 -1.2838 -3.1822 -1.2633 1.2171 2.3798 -2.6603 -0.0492 -4.7445 3.0198 -0.9156 5.2382 1.1587 -0.8501 1.8693 -3.0028 1.1974 -3.9617 -1.1655 -0.2909 -4.7552 0.9358 0.5883 1.4531 1.5323 -0.8490 3.3038 -1.0667 0.9678 0.0084 -0.7363 0.1675 -1.0060 -2.3335 1.2828 -2.6025 2.7397 -1.1339 3.7952 -0.5176 0.8809 1.3243 -0.6245 -0.3595 -3.3663 -1.1710 0.3560 -2.3680
3.9291 -3.1053 3.9642 -1.9009 2.5965 -2.5155 1.5281 -1.7308 4.6096 0.8811 -1.2592 -2.7321 -1.9862 1.0392 2.4252 -2.1387 -0.3254 -4.7900 3.7560 -1.7487 3.3239 0.8812 0.8037 3.1714 -2.6744 0.9149 -4.1126 -0.6498 -0.4819 -4.5682 0.4084 1.2889 1.8180 2.1471 0.0481 3.0094 -1.3795 0.9067 0.1255 -0.7247 0.2409 -0.8272 -2.1918 1.1195 -2.6876 2.4530 -1.0949 3.6303 -1.0125 0.9430 1.5136 -0.3053 -0.4425 -3.1161 -1.0203 0.2873 -2.2418
3.2483 -1.6222 6.2634 -0.7824 2.7028 -2.4679 0.5940 -0.9479 4.6343 -0.9077 -1.8875 -3.8857 0.6086 -1.4675 1.1242 -3.5733 0.7591 -4.0382 2.9837 -1.7835 4.7872 1.5623 1.0848 2.6428 -2.9330 1.9603 -3.3818 -2.5124 -0.1215 -4.6632 1.6654 0.7785 1.1593 2.4433 0.1535 3.3982 -0.2793 0.2518 -0.3082 -0.2796 -0.1963 -1.5679 -1.8187 1.5999 -2.4164 2.0272 -0.7656 4.2757 0.6420 -0.2027 0.6921 -1.5010 -0.5415 -3.6468 -1.1873 0.2456 -2.6009
4.7643 -0.9488 3.3037 -0.1316 2.4381 -1.6938 2.1088 -0.1869 5.0378 -0.5760 -2.0654 -3.1911 -2.3410 0.2355 2.4399 -1.6935 1.1457 -4.8084 3.7732 0.1844 3.1685 0.2143 -1.2810 3.0477 -1.4075 2.2026 -3.7667 -0.7570 -0.0343 -4.6621 -0.6603 -1.4885 1.8331 1.5555 -0.7558 2.6883 -1.4275 0.2768 0.2293 -1.2037 -0.3983 -0.8995 -1.2588 1.6684 -2.3526 2.4208 -0.2710 3.5846 -1.5251 -0.3102 1.5331 -0.8067 -0.5957 -3.2802 -1.0482 0.1845 -2.2117
4.1033 -2.4920 4.6610 -2.5171 2.4546 -2.5397 2.6365 0.4034 4.1475 1.2586 -0.3645 -3.0022 -0.8921 1.7915 2.3337 -2.0188 -0.4004 -4.7796 3.7997 -1.7155 3.4006 0.0539 -0.7993 3.2821 -2.9225 0.5137 -3.9823 -0.5694 0.0246 -4.6860 -0.6302 -0.6616 1.9413 1.3676 -1.4760 3.1447 -1.2729 0.9204 0.1351 -0.5948 0.4431 -0.9104 -2.3763 0.9499 -2.6324 2.5303 -0.9551 3.5494 -0.8461 0.7490 1.4977 -0.1352 0.0940 -3.2604 -0.9744 0.5203 -2.3000
4.5664 0.8269 4.8059 0.6287 1.7211 -2.5724 1.4513 0.0934 5.3898 -2.5321 -1.6305 -3.8255 -1.5073 -1.7481 1.3839 -2.5752 2.0919 -4.4292 3.9040 -0.4889 5.1376 0.9233 -1.4412 2.8803 -1.3799 2.5999 -3.6576 -2.3804 0.6544 -4.8602 0.7850 -0.7610 1.5352 2.2723 -1.2330 3.4622 -0.7849 -0.1699 -0.2768 -1.0759 -0.6140 -1.5029 -0.8847 1.6603 -2.5725 2.5235 -0.5550 4.5868 -0.5217 -1.0142 0.8550 -2.0499 -0.2262 -3.7001 -1.3624 0.2342 -2.6395
4.7826 0.4031 4.7420 0.5902 1.6130 -3.3058 2.7101 -2.1064 5.0545 -2.6542 -1.6724 -3.6633 -1.6893 -1.2259 1.5570 -2.1572 1.9931 -4.8255 3.4552 0.2773 5.4526 0.7666 -1.0670 3.0351 -1.7294 2.5278 -3.4755 -2.3758 0.4937 -4.8962 0.7423 -0.6448 1.5817 1.6920 -0.2112 3.8164 -0.7539 0.0233 -0.2718 -1.1023 -0.5325 -1.4362 -0.8054 1.5952 -2.7243 2.5664 -0.6635 4.7204 -0.6124 -0.7073 0.9566 -2.0781 -0.2976 -3.6645 -1.3474 0.2022 -2.6533
2.9511 -2.7086 4.2877 -0.9387 2.6905 -2.3236 0.4793 -0.6756 4.8262 -0.5661 -1.8524 -3.8493 0.6300 -1.3560 1.2963 -3.4520 0.5397 -4.0771 2.8737 -1.4375 5.1046 1.4617 1.2762 2.7546 -2.9641 1.7756 -3.3572 -2.2803 -0.2139 -4.6692 1.6336 0.9144 1.2907 2.3392 0.4016 3.5769 -0.2538 0.3000 -0.2132 -0.2188 -0.1869 -1.4576 -1.8669 1.4943 -2.3467 1.9134 -0.4941 4.4734 0.6499 -0.1058 0.8232 -1.2884 -0.5710 -3.6104 -1.1030 0.2094 -2.5294
3.9179 -2.2433 4.1364 -1.9724 2.6156 -2.1769 2.5699 0.7290 4.4275 0.3735 -1.1095 -4.0106 1.7850 0.3787 0.9570 -2.8035 0.9366 -4.7545 2.9687 -1.6590 5.1573 -0.0836 -0.1418 3.3418 -3.3822 0.9512 -3.3563 -1.7657 -0.1560 -4.9012 -0.2660 -0.6374 1.9226 0.8683 -1.0374 4.0501 -0.3138 0.6176 -0.2102 -0.2277 0.0415 -1.4119 -2.3002 1.1441 -2.3120 2.0648 -0.6673 4.5168 0.4625 0.1876 0.9171 -0.8281 -0.2679 -3.7410 -1.0673 0.3175 -2.5521
4.0559 -1.6920 5.4690 -2.3438 2.5509 -2.4258 3.2058 -2.1837 2.7794 0.8836 -0.9442 -2.9780 -1.0585 2.0452 2.2651 -2.4561 -0.4470 -4.6256 2.5795 -1.5519 5.1864 0.7676 -0.7122 1.9077 -3.0507 0.7494 -3.9184 -0.9431 -0.3891 -4.6150 0.9183 0.7532 1.5634 1.1716 -0.8876 3.3217 -0.9366 1.3312 -0.0165 -0.6889 0.3601 -0.8971 -2.4337 1.0440 -2.5635 2.2728 -1.5199 3.7317 -0.4105 1.3720 1.3116 -0.4209 -0.2664 -3.2226 -1.1121 0.3879 -2.2734
4.8036 -0.5149 4.4915 0.7314 1.5452 -2.7604 1.8063 -1.6362 5.1329 -2.7192 -1.6750 -3.6192 -1.1698 -1.9382 1.2817 -2.5984 1.9970 -4.3893 3.6457 0.0962 5.2479 0.5234 0.0644 2.9646 -1.2954 2.4607 -3.7809 -2.5063 0.5385 -4.7809 0.8755 -0.6118 1.6549 1.7720 0.3942 3.6963 -0.5901 -0.1769 -0.2924 -1.0564 -0.6376 -1.4562 -0.7800 1.5618 -2.6698 2.3565 -0.3421 4.6468 -0.3343 -0.9793 0.8702 -2.1278 -0.3076 -3.6100 -1.3367 0.1618 -2.6277
3.6598 -0.7025 5.7815 0.3407 1.9593 -1.9691 3.3378 -1.7677 2.6402 -1.8097 -2.0414 -3.3933 -2.5218 -1.1340 1.8896 -1.0288 1.4393 -4.8142 3.9822 -0.1032 4.4338 0.9498 -0.1427 2.0576 -1.4683 2.2771 -3.6330 -1.6531 0.0609 -4.7516 -0.4787 0.0677 2.5003 1.9134 0.1953 3.1344 -1.4233 0.1697 0.1896 -1.3381 -0.4886 -0.9703 -1.0927 1.6220 -2.3184 2.9999 -0.5359 3.4046 -1.4482 -0.4460 1.4881 -1.5837 -0.5679 -3.3948 -1.3373 0.1385 -2.2751
1.4939 -1.9175 5.7198 -0.8923 2.6916 -2.3313 2.9312 -1.8485 2.8259 -0.5265 -1.9391 -3.5580 -0.3127 -1.0799 1.8031 -3.1824 0.5830 -4.4005 2.7820 -1.2621 5.2787 2.1289 0.9565 2.1865 -2.7645 1.8230 -3.6457 -1.9722 -0.2608 -4.7368 0.6558 1.1815 1.9152 2.3238 0.4408 3.5680 -0.6525 0.4226 -0.0379 -0.4755 -0.1671 -1.2235 -1.8690 1.5407 -2.4523 2.6677 -0.8169 3.8652 0.0221 0.0514 1.1729 -1.2023 -0.6125 -3.5054 -1.1555 0.2133 -2.4437
2.4824 -2.0246 5.3592 -1.8610 2.6719 -2.2984 4.3509 -1.4167 2.7783 0.7887 -1.2669 -2.6598 -2.0386 1.1798 2.5131 -2.0971 -0.0680 -4.7815 2.6307 -0.7743 4.5258 0.5806 -0.7782 2.3485 -2.6276 1.1285 -4.0284 -0.6290 -0.3037 -4.5002 0.3318 0.6903 2.0899 2.0131 -1.0979 2.1420 -1.3174 0.9814 0.2311 -0.8529 0.1630 -0.7168 -2.1937 1.2204 -2.5773 2.9333 -1.1218 3.1102 -1.0731 0.8786 1.6398 -0.3499 -0.3812 -3.0348 -1.0710 0.3193 -2.1407
2.2038 -2.5465 4.8020 -0.8955 2.6573 -2.0554 3.1653 -0.9767 2.0136 -0.0546 -1.9144 -3.2052 -1.0350 -1.1655 2.0824 -2.5646 0.5113 -4.6073 3.1835 -1.4361 4.5003 1.2825 1.2738 2.5149 -2.4084 1.7416 -3.7446 -1.2701 -0.2705 -4.6627 -0.2215 1.1170 2.4400 1.8559 0.4208 3.5891 -1.0611 0.3680 0.2259 -0.6215 -0.2034 -0.8990 -1.7795 1.4737 -2.3887 2.6888 -0.6025 3.3725 -0.6479 -0.0021 1.5495 -0.7916 -0.6225 -3.2917 -1.0285 0.1769 -2.2355
2.8572 -1.2708 6.6128 -1.1799 2.7471 -2.0401 2.7483 0.8745 4.0753 -0.5122 -1.3842 -4.3427 2.1151 -0.6575 0.3063 -3.5780 0.7830 -4.0960 3.2290 -1.3640 5.1519 0.2589 -0.3205 2.9157 -3.1899 1.8618 -3.1119 -2.3624 0.2479 -4.8223 0.0677 -1.0817 1.6219 1.2090 -1.0511 3.7940 0.0137 0.2490 -0.4746 -0.2855 -0.2510 -1.6758 -2.0205 1.4991 -2.2135 2.3207 -0.5292 4.3214 0.8066 -0.4570 0.4897 -1.3266 -0.2321 -3.8606 -1.1714 0.3368 -2.6515
4.1722 1.1892 5.1949 0.9999 0.9506 -2.5587 2.4861 -1.6268 5.1420 -3.1525 -1.2242 -3.5739 -2.1025 -1.3784 1.5918 -1.9763 2.2408 -4.4083 4.1230 0.0554 4.1969 0.5253 -0.7421 3.0194 -0.6330 2.3510 -3.7259 -2.2685 0.7997 -4.7641 0.3735 -1.4088 1.6675 1.8972 -0.2024 3.1932 -0.8547 -0.2693 -0.1580 -1.3968 -0.6063 -1.3311 -0.4500 1.3872 -2.5659 2.7680 -0.5610 4.1427 -0.9297 -1.0779 1.0246 -2.2072 -0.0733 -3.5545 -1.3741 0.1965 -2.5326
3.0198 -2.8040 5.0592 -1.8962 2.6306 -2.0349 0.5704 -0.6922 5.4648 -0.1026 -1.1113 -4.3964 2.5236 0.5388 -0.0208 -3.6807 -0.0550 -3.8876 3.0179 -1.3456 5.4598 1.0308 0.5617 2.7617 -3.5877 1.1115 -2.9315 -2.4195 -0.1860 -4.7143 0.8216 -0.3278 1.5545 2.0843 -0.0571 3.6034 0.1781 0.7055 -0.5956 -0.0389 0.1023 -1.7656 -2.2939 1.1726 -2.1386 1.8936 -0.6420 4.7882 1.2404 0.3367 0.2919 -1.2098 -0.2787 -3.8454 -1.1511 0.3398 -2.6529
3.5284 -1.4714 1.5746 -0.2411 2.5490 -2.0450 1.4378 -1.9292 4.0389 -0.2426 -2.1936 -2.8334 -1.5699 -0.8950 2.2549 -2.0859 0.5455 -4.6092 3.5828 -1.0600 3.0285 0.3292 0.8663 3.7651 -1.7239 1.7965 -3.8428 -0.9634 -0.4648 -4.5043 -0.4188 1.2874 2.5165 1.7151 0.4685 3.4178 -1.1512 0.4706 0.3177 -0.6478 -0.2203 -0.7078 -1.2963 1.5278 -2.4106 2.2080 -0.7703 3.5112 -0.9518 0.1542 1.7029 -0.6754 -0.7884 -3.0743 -0.8333 0.1272 -2.1007
3.8269 -0.7146 6.2782 -0.5355 2.6641 -2.8562 0.8167 -1.6103 5.2877 -1.6254 -1.8870 -3.8327 2.3330 -0.9252 -0.3218 -3.8337 1.1567 -3.6961 2.6131 0.0810 5.8579 1.4142 -1.1734 2.4199 -2.9208 2.2536 -3.1983 -3.0523 0.0941 -4.4394 0.7808 -0.1704 1.4872 2.1074 -0.4569 3.5177 0.3715 0.3549 -0.8772 -0.3922 -0.2892 -1.7603 -1.6847 1.7554 -2.4711 1.8551 -0.6561 4.8140 1.1979 -0.3362 0.0678 -1.9489 -0.4508 -3.5959 -1.3232 0.3104 -2.6813
3.6361 -0.0380 5.9954 -0.0123 2.4035 -2.1617 2.7716 0.6418 3.1019 -1.4887 -1.7500 -4.0070 1.5465 -1.8900 0.4788 -3.1845 1.6050 -3.9342 3.0675 -1.0203 4.9995 -0.0723 -0.1985 2.9171 -2.2718 2.4635 -3.0895 -2.4047 0.5065 -4.6246 -0.3814 -1.2557 1.8766 0.8818 -0.7290 3.9269 0.0114 -0.2206 -0.3593 -0.5857 -0.6253 -1.4825 -1.3426 1.6795 -2.1789 2.1621 -0.3556 4.0243 0.4660 -1.1247 0.6576 -1.6415 -0.3136 -3.6379 -1.1575 0.2214 -2.5024
3.9813 -2.7514 4.8522 -3.3960 1.5004 -2.3483 1.1197 -1.0930 5.4443 0.7808 0.7170 -4.1573 1.1637 2.5151 0.8470 -2.6002 -1.0111 -4.4183 2.5803 -2.8121 4.2932 1.4003 0.6299 3.0211 -3.0853 -0.8827 -2.9888 -1.5166 -0.0461 -4.8553 0.2623 0.5092 2.0312 2.0582 -0.6885 3.1866 -0.5947 1.2159 -0.1709 -0.2225 0.9288 -1.4199 -2.5221 0.2762 -2.1953 1.9512 -1.4652 4.2682 0.3566 1.4495 0.8791 -0.6240 0.4242 -3.7582 -1.0930 0.5840 -2.5105
4.2308 -2.2122 3.6761 -1.3640 2.5463 -2.7350 2.2034 -1.5648 1.0910 1.1107 -1.2128 -1.8549 -2.7757 1.3671 2.5620 -1.2764 -0.0136 -4.6333 3.7831 -0.9582 2.9666 -0.0558 -0.6191 2.8457 -2.3745 0.4856 -3.7179 0.0287 -0.3936 -3.9621 -0.3860 0.8432 2.6390 1.3679 -0.6843 3.2545 -1.6152 1.0986 0.4701 -0.9058 0.2816 -0.3143 -1.8808 1.1531 -2.4538 2.3831 -1.0856 2.4852 -1.6647 1.0226 1.9042 0.0360 -0.3876 -2.4687 -0.8450 0.3338 -1.7546
3.5355 -2.9240 2.3985 -1.7193 2.5088 -2.4456 3.0426 0.0450 3.7508 1.4339 -0.8984 -1.8736 -2.9148 0.5619 2.5117 -1.1545 -0.3660 -4.5345 3.3001 -1.5550 1.8045 0.0754 -0.0853 3.3308 -2.1615 0.5784 -3.9128 0.2464 -0.2022 -3.9849 -0.5081 1.0954 2.5844 1.0758 -0.8031 2.5023 -1.7460 0.7434 0.4282 -0.7747 0.2511 -0.3443 -1.8838 1.0042 -2.4824 2.3983 -0.7664 2.6837 -1.7579 0.7213 1.8624 0.2547 -0.2336 -2.4931 -0.7419 0.3246 -1.7861
4.6649 0.0637 5.3233 0.6739 0.0245 -3.5762 1.5020 -0.7862 5.4501 -3.9816 -0.1304 -2.5461 -0.6987 -2.7252 0.7266 -1.9426 2.6059 -4.1380 3.4046 0.8047 4.9417 1.3675 -1.3850 2.5056 -0.5185 2.1091 -4.0379 -2.9230 1.4537 -4.1890 0.2502 -0.6813 1.7684 2.2978 -0.4120 3.1270 -0.2703 -0.7842 -0.6503 -1.4061 -0.4318 -1.2565 -0.2992 1.0287 -2.9925 2.3861 -0.1523 4.4349 -0.2406 -1.4750 0.6071 -2.7367 0.5327 -3.0292 -1.5296 0.3403 -2.4687
4.1260 1.0283 2.6420 0.8393 1.8204 -1.5431 2.4955 -1.7303 1.7358 -1.4318 -2.1020 -2.9904 -2.9997 -0.6893 1.9607 -1.3729 1.3090 -4.4711 3.8158 -0.2780 3.3344 0.0260 -1.0190 3.2544 -0.6529 2.1768 -3.4626 -0.8526 -0.1111 -4.4081 -0.8886 0.1336 2.9080 1.3818 -0.5096 3.5816 -1.3835 0.3410 0.4839 -1.2937 -0.3782 -0.6377 -0.5576 1.5704 -2.0712 2.4951 -0.8126 2.9065 -1.7714 -0.2027 1.7568 -1.0463 -0.6640 -3.0344 -0.9285 0.1172 -1.9453
0.7052 -0.8235 6.3457 -0.6612 2.5691 -2.0521 2.6031 1.1686 4.6433 -1.4734 -1.5335 -4.3378 2.0642 -1.8689 -0.5687 -3.8336 1.2842 -3.4799 2.1509 -0.9693 5.9259 2.3725 -0.4265 2.1186 -3.0112 2.1891 -2.5926 -2.9642 0.4924 -4.4341 1.0761 -0.7401 1.4029 2.2958 -1.0029 3.4831 0.4439 -0.0965 -0.8970 -0.3985 -0.5553 -1.8255 -1.7765 1.5467 -1.9906 2.3667 -0.2995 4.6161 1.2645 -0.9251 -0.0622 -1.8867 -0.2459 -3.7116 -1.3376 0.2370 -2.5834
1.2813 -1.3816 6.4155 -2.5716 2.4333 -1.9511 1.7197 -2.8300 3.4747 0.2580 -0.7173 -4.1761 2.2709 2.0615 -0.0015 -3.4571 -0.7830 -3.6092 2.5021 -1.6369 5.5639 2.0021 -0.2845 1.9904 -3.7200 0.4273 -2.7434 -2.2318 -0.5663 -4.4712 1.0264 0.8426 1.7465 2.2872 -0.4199 3.4396 0.0223 1.3095 -0.4728 -0.0271 0.5920 -1.5972 -2.5027 0.9202 -1.9796 2.1600 -1.5634 4.1193 1.1847 1.3747 0.3656 -1.0418 -0.2262 -3.6359 -1.1626 0.4478 -2.4775
2.9997 -3.1102 5.5248 -3.2134 -0.1875 -1.2079 1.2660 -0.6096 5.0387 -0.3526 2.2544 -4.1434 0.2709 2.8957 1.2174 -1.9053 -1.1538 -4.5481 3.4194 -1.9116 4.7068 0.9828 -0.4858 2.0783 -2.5593 -1.4194 -3.2122 -1.8173 0.3305 -4.8304 1.4881 0.7653 1.3924 2.1031 -1.1666 2.7756 -0.4964 1.0268 -0.1068 -0.4285 1.2732 -1.4164 -2.0275 -0.5732 -2.0680 2.2383 -1.2384 4.1034 0.3854 1.6133 0.8611 -1.1328 1.0566 -3.7205 -1.2204 0.6402 -2.4448
4.9301 0.1740 3.9756 -0.7802 -1.5831 -3.2920 2.0333 -0.4071 5.4855 -3.2271 2.3874 -2.3026 -2.1744 -0.8284 1.8308 -1.1649 0.9370 -5.2102 4.2020 -1.0871 4.3748 0.6057 -1.2136 2.9735 0.0359 0.4682 -4.4170 -1.9685 1.9528 -4.4261 0.2130 -0.1564 1.9654 2.0772 -1.2633 3.1569 -0.9281 -0.4722 -0.2110 -1.5680 0.4400 -0.9462 -0.3778 -0.1379 -3.0898 2.7282 -0.9126 4.2708 -1.0234 -0.5281 1.2203 -2.1701 1.5894 -2.9897 -1.4430 0.6411 -2.3690
3.4292 1.7941 4.5374 1.1746 0.0978 -2.5751 3.2759 -1.5702 4.3237 -3.5457 -0.4779 -3.1661 -2.2483 -1.1849 1.8344 -1.3322 2.4031 -4.1118 3.5868 0.7783 3.4306 0.4817 -1.5095 3.1478 0.0251 2.0195 -3.5713 -2.1378 1.1651 -4.4388 0.1036 -1.9598 1.7500 1.4622 -0.3953 3.1007 -0.8224 -0.4394 0.0292 -1.4758 -0.5947 -1.1245 -0.0266 1.0108 -2.4357 2.6900 -0.3937 3.6277 -1.0751 -1.2353 1.1963 -2.2665 0.2811 -3.2433 -1.2987 0.2109 -2.3111
3.8184 1.4619 2.6445 1.2609 0.5202 -2.2540 0.9203 0.7950 4.0689 -3.2244 -0.8106 -3.2683 -1.9122 -1.6603 1.8693 -1.4960 2.4779 -3.8226 3.4386 0.6807 3.8802 0.8158 -2.0379 3.0690 -0.1406 2.2983 -3.1801 -2.0389 1.1476 -4.2974 0.4858 -2.2527 1.6060 2.0625 -1.2508 3.2428 -0.6335 -0.6391 0.0929 -1.3238 -0.7215 -1.0482 -0.0894 1.1957 -2.1368 2.1252 0.0070 3.6928 -0.7656 -1.5547 1.1899 -2.0989 0.1614 -3.1770 -1.2040 0.1820 -2.1718
4.6114 -1.8338 3.5876 -2.8897 -1.0198 -1.6278 1.8465 -1.0506 5.2735 -0.7179 2.7316 -3.6204 -1.1712 2.6421 1.7384 -0.7847 -0.8780 -4.6895 3.2824 -2.5207 3.7963 0.3293 -0.2205 2.8363 -1.5093 -1.5798 -3.5643 -1.2177 0.5680 -4.7981 0.6604 1.0218 2.0385 1.4816 -1.1579 2.8250 -0.9414 0.8321 0.1428 -0.8700 1.3359 -1.0904 -1.5240 -0.8156 -2.2508 2.1751 -1.5328 3.9048 -0.5316 1.5468 1.3182 -1.0490 1.2832 -3.4992 -1.1801 0.6480 -2.3209
4.6352 0.1147 3.4057 1.0825 1.2633 -1.2715 2.4462 -0.4493 1.0396 -2.1352 -1.6896 -3.2061 -3.2086 -1.0571 1.9469 -0.0539 1.4001 -4.2074 3.3643 0.8295 3.0176 0.2405 -1.4257 2.8035 -0.3795 2.2530 -3.0002 -1.0374 0.2561 -4.3391 -1.0311 -0.6213 2.9478 1.3666 -0.5732 3.2637 -1.5265 -0.0052 0.5842 -1.3945 -0.5753 -0.6163 -0.3490 1.4285 -1.7282 2.3538 -0.1222 2.4851 -1.9271 -0.7235 1.7642 -1.3841 -0.4119 -3.0447 -1.0622 0.1091 -1.8448
4.7445 -0.3898 4.6238 0.0533 -1.4793 -2.8210 2.6947 -1.9792 2.6340 -3.5042 1.6630 -2.5363 -2.4506 -1.1753 1.9302 -0.5904 0.8001 -4.9175 4.0129 0.0535 3.3797 0.2028 -0.5367 3.4370 0.4986 0.7243 -3.8685 -1.8195 1.5047 -4.3829 -0.5796 0.3374 2.4812 1.5727 0.0092 3.6002 -1.0018 -0.4181 0.1451 -1.6542 0.3252 -0.7522 0.0147 0.0200 -2.6151 2.6959 -0.6263 3.2535 -1.3848 -0.4759 1.5293 -2.1681 1.1587 -2.9692 -1.3368 0.4845 -2.1513
4.4849 0.6892 3.4589 1.2915 -0.2928 -2.2303 2.2931 -1.8334 3.2271 -3.4307 -0.3953 -2.9529 -1.6166 -2.2040 1.7743 -0.8556 2.0571 -4.1614 3.4831 0.2493 2.4200 -0.1303 -0.1535 3.7000 0.4227 1.6162 -3.4862 -1.7871 0.8808 -4.3605 -1.1873 0.0781 2.6369 1.1823 0.3836 3.2548 -0.7123 -0.5319 0.2745 -1.5202 -0.3428 -0.7712 0.2106 0.7683 -2.2427 2.2732 -0.3577 3.0359 -1.1824 -0.9579 1.5637 -2.0664 0.1953 -3.0639 -1.1526 0.1513 -2.0771
4.0621 -2.3179 2.4287 -1.9654 2.1559 -2.3725 0.8439 -2.2445 1.4677 1.4936 -0.9677 -1.4135 -2.5081 2.0864 2.5811 -0.7416 -0.0224 -4.3645 3.2473 -1.4559 1.4960 0.1561 0.0722 3.2314 -2.0751 0.0438 -3.6515 0.2404 -0.8528 -3.5677 -0.1464 1.4741 2.7509 1.5317 -0.2630 2.7844 -1.4014 1.3477 0.5815 -0.7555 0.3739 -0.0680 -1.9383 0.6457 -2.2655 1.8549 -1.2873 1.9905 -1.4329 1.5381 2.0059 0.2637 -0.5029 -2.1118 -0.7292 0.1767 -1.5030
4.2865 -0.1161 1.5164 0.7758 1.9186 -1.1980 1.4649 -1.9074 1.7760 -1.0202 -2.3227 -2.4617 -2.8945 -0.8570 2.3326 0.0648 0.9708 -4.1457 2.8697 0.0607 1.0330 0.1079 -0.0700 3.7067 -0.6572 1.9254 -3.2195 -0.4948 -0.4310 -4.0197 -1.1338 0.6270 3.1863 1.2744 0.3130 2.8690 -1.5197 0.3381 0.7542 -1.0984 -0.4462 -0.2410 -0.5502 1.4745 -1.7757 1.8809 -0.4947 1.9933 -1.8051 -0.1241 2.0849 -0.7631 -0.8610 -2.6121 -0.7879 0.0019 -1.5790
0.5099 -3.2218 2.6084 -3.1873 0.0198 -1.0966 1.1841 -0.8063 4.3663 0.5963 1.6917 -3.5172 -0.5796 2.3114 2.4608 -1.3835 -1.4658 -4.0005 1.9049 -2.6773 2.8132 2.3718 1.1338 2.4829 -2.3594 -1.4684 -2.8466 -0.9977 -0.0508 -4.3732 1.6059 1.8453 1.3883 2.4095 -0.3368 2.2663 -0.5463 0.9584 0.4706 -0.2458 1.0783 -0.8238 -1.9333 -0.6107 -1.6663 1.8604 -1.2203 3.1058 0.1233 1.7076 1.4984 -0.4544 0.6845 -3.1937 -0.8790 0.4273 -1.9430
3.2951 1.1084 0.7842 1.5098 0.0589 -1.4620 0.9930 1.4152 2.9480 -2.7664 -0.7851 -3.2461 -2.6619 -1.4334 2.1364 -0.6095 2.2805 -3.5026 3.3123 0.6887 2.2337 0.3459 -1.4818 3.4177 0.5429 2.0104 -2.5632 -1.1746 0.9875 -4.0492 -0.3588 -2.2976 2.3522 1.6551 -0.9796 2.9239 -0.9776 -0.6640 0.5861 -1.3891 -0.7718 -0.6783 0.2722 0.9269 -1.5330 1.9539 0.3049 2.7026 -1.4155 -1.5051 1.6611 -1.5921 0.0786 -2.9419 -0.9345 0.0584 -1.7697

>  <OB_ATOM_TYPES> (1fenA1)
C.3 C.3 C.3 C.3 C.2 C.3 C.3 C.3 C.3 C.3 C.3 C.2 C.2 C.2 C.3 C.2 C.2 C.2 C.2

>  <ENSEMBLE_RMSD> (1fenA1)
0.967 1.003 1.036 1.077 1.144 1.145 1.160 1.216 1.221 1.278 1.319 1.328 1.346 1.364 1.403 1.422 1.440 1.454 1.468 1.476 1.487 1.498 1.509 1.520 1.555 1.579 1.676 1.705 1.706 1.722 1.739 1.887 1.938 1.993 2.030 2.047 2.078 2.092 2.141 2.144 2.155 2.220 2.251 2.278 2.356 2.363 2.368 2.487 2.629 2.748

$$$$
