
 OpenBabel03071213D

 23 24  0  0  0  0  0  0  0  0999 V2000
   71.0830   -6.0660  -33.9470 O   0  0  0  0  0
   71.4070   -4.0790  -35.1020 O   0  0  0  0  0
   66.3740   -4.2990  -31.7320 O   0  0  0  0  0
   69.0110   -4.0680  -32.8790 C   0  0  0  0  0
   70.5010   -3.9830  -32.9240 C   0  0  0  0  0
   68.4550   -3.1800  -31.8220 C   0  0  0  0  0
   66.3590   -2.0810  -31.3510 N   0  0  0  0  0
   57.2970    3.2470  -28.6820 C   0  0  0  0  0
   58.3370    3.9800  -29.3220 C   0  0  0  0  0
   57.4620    1.8800  -28.3950 C   0  0  0  0  0
   59.5400    3.3230  -29.6790 C   0  0  0  0  0
   58.6460    1.2260  -28.7450 C   0  0  0  0  0
   64.6930   -0.3390  -31.1580 C   0  0  0  0  0
   64.1800   -2.4700  -30.0440 C   0  0  0  0  0
   63.4690    0.1920  -30.7440 C   0  0  0  0  0
   62.9280   -1.9170  -29.6130 C   0  0  0  0  0
   60.9550    1.2720  -29.7800 C   0  0  0  0  0
   61.2760   -0.0050  -29.5310 C   0  0  0  0  0
   71.0470   -4.8510  -34.0070 C   0  0  0  0  0
   66.9390   -3.2280  -31.6390 C   0  0  0  0  0
   65.0730   -1.6670  -30.8320 C   0  0  0  0  0
   59.6890    1.9480  -29.3870 C   0  0  0  0  0
   62.5820   -0.5900  -29.9670 C   0  0  0  0  0
  1 19  1  0  0  0
  2 19  2  0  0  0
  3 20  2  0  0  0
  4  5  1  0  0  0
  4  6  1  0  0  0
  5 19  1  0  0  0
  6 20  1  0  0  0
  7 20  1  0  0  0
  7 21  1  0  0  0
  8  9  2  0  0  0
  8 10  1  0  0  0
  9 11  1  0  0  0
 10 12  2  0  0  0
 11 22  2  0  0  0
 12 22  1  0  0  0
 13 15  1  0  0  0
 13 21  2  0  0  0
 14 16  2  0  0  0
 14 21  1  0  0  0
 15 23  2  0  0  0
 16 23  1  0  0  0
 17 18  2  0  0  0
 17 22  1  0  0  0
 18 23  1  0  0  0
M  END
>  <MOLID> (1fl3B1)
1fl3B1

>  <SMILES_CANONICAL> (1fl3B1)
O=C(Nc1ccc(cc1)/C=C/c1ccccc1)CCCC(=O)O	

>  <FINGERPRINT> (1fl3B1)
0000000000000001010000000000001000000001000000000000100000000000000000000001000000000001000000000000000000000001000001100000000000100000000010000000000000000000000000000000000000100000000000001000000000000000000000001000000000000000000000000000010000000000000000000000000000000000000000000000000000000010000010001100000000000000001010000000000100000100010000000000000110010000000000000000010000000000100000000011000000000001000100001000000000000000000000000000001000000000010000100000000000001000000000000000100000000000000001000000010000000000000000100000000000000000000000000000100001000000000000000000000000000000000000000000000000000001010000000001000000000000000000000001100000000000000011100000000000100001000000000010000000000000000000000101000000000000000100000000000000000000000000000000000010000000000000000000000000000000000000000100000000100000000000000101000000000000000000001000000000000000010000001000000000000000000000000000011000000000000000010000010000000000000000000000000000000000000000000010001000000000

>  <MACCS166> (1fl3B1)
000000000000000000000000000000000000000000001000010000000000000000000000000100000000000001110000001000010000011000001100001010000011101100110100111000100111111010111000

>  <OB_MW> (1fl3B1)
309.136

>  <OB_logP> (1fl3B1)
4.1234

>  <OB_PSA> (1fl3B1)
66.4

>  <OB_MR> (1fl3B1)
92.3175

>  <OB_ATOMIC_CHARGES> (1fl3B1)
-0.2456536887 -0.2456536887 -0.272985258 0.0214279182 0.1145630798 0.0877578959 -0.1792102666 0 0 0 0 0 0.0165970407 0.0165970407 0.0013346899 0.0013346899 4.2e-09 1.0582e-06 0.364872318 0.2455686716 0.0733645693 0 8.39255e-05

>  <MCT_HBD> (1fl3B1)
2

>  <MCT_HBA> (1fl3B1)
4

>  <ENSEMBLE_TOTAL> (1fl3B1)
50

>  <ENSEMBLE_COORDS> (1fl3B1)
5.9365 -4.2318 -4.0002 7.1055 -2.4679 -3.1529 2.7538 -3.0827 1.0135 4.0325 -3.1191 -1.9547 4.6946 -2.4350 -3.1309 4.2447 -2.3085 -0.6962 2.2504 -1.1644 -0.2324 -6.7005 4.3783 1.7889 -5.5274 5.0170 1.6392 -6.7438 2.9310 1.6982 -4.3143 4.2560 1.4043 -5.6173 2.2307 1.4726 0.7650 0.6029 -0.0810 0.1377 -1.4593 1.0042 -0.5322 1.1431 0.2510 -1.0641 -0.9431 1.3302 -3.0731 2.2628 1.0464 -2.7298 0.9924 1.2785 6.0450 -3.0259 -3.3938 2.9910 -2.2668 0.1317 1.1114 -0.6387 0.3003 -4.3278 2.9071 1.3358 -1.4377 0.4220 0.9474
4.7978 -4.3412 -4.0148 6.5539 -2.8987 -4.2507 2.6829 -3.0223 0.7702 4.4553 -2.2694 -1.7990 5.5533 -3.2582 -2.0931 4.5208 -1.9613 -0.3231 2.5548 -0.7700 0.1328 -6.8316 4.1494 1.6975 -5.6744 4.8280 1.7759 -6.8161 2.7252 1.4210 -4.4180 4.1283 1.5981 -5.6468 2.0807 1.2563 0.9301 0.8985 0.1725 0.2492 -1.3347 0.7891 -0.4286 1.3385 0.3988 -1.0090 -0.9150 1.0178 -3.0673 2.2262 1.2256 -2.7452 0.9504 1.0033 5.6993 -3.4371 -3.5639 3.1386 -2.0130 0.2466 1.2654 -0.3897 0.3579 -4.3780 2.8004 1.3583 -1.3862 0.4850 0.8230
7.7009 -3.3670 -1.8088 6.7927 -1.6853 -3.0528 2.5341 -3.1487 0.1849 4.5769 -3.6398 -1.6677 5.5936 -3.7571 -2.7846 3.5737 -2.5317 -1.9122 1.5719 -1.5158 -1.1834 -6.4440 4.6705 2.5253 -5.4125 5.2425 1.8807 -6.4550 3.2341 2.7254 -4.3155 4.4210 1.3974 -5.4382 2.4785 2.2716 -0.0635 0.1321 -1.0903 0.0634 -1.3607 0.7941 -1.2054 0.7729 -0.4762 -0.9905 -0.7443 1.3756 -3.1584 2.3573 1.0564 -2.8096 1.0890 1.3115 6.7316 -2.8071 -2.5710 2.5325 -2.4396 -0.8133 0.5800 -0.8818 -0.4826 -4.2954 3.0818 1.5828 -1.6633 0.3990 0.7374
6.3037 -2.8703 -4.3057 6.1047 -4.6029 -2.8379 2.5173 -3.2573 -0.0343 4.6605 -1.6724 -2.0184 4.4220 -2.8787 -2.8973 4.4886 -2.0055 -0.5534 2.5287 -0.9410 0.2579 -6.7929 4.2336 1.7028 -5.6825 4.9102 1.3624 -6.7350 2.7921 1.8525 -4.4361 4.1954 1.1464 -5.5796 2.1354 1.6462 1.0168 0.7849 0.6320 0.1206 -1.4513 0.6027 -0.3040 1.2835 0.9462 -1.1164 -0.9793 0.8709 -3.0919 2.2284 0.9759 -2.6783 1.0094 1.3438 5.7022 -3.5429 -3.2962 3.0432 -2.1552 -0.1461 1.2357 -0.5276 0.4351 -4.3575 2.8529 1.2822 -1.3698 0.4587 1.0323
6.5654 -4.9824 -3.4808 7.4306 -3.0926 -2.5373 1.7981 -2.4813 -1.6377 4.4446 -3.4296 -1.6239 5.0659 -3.2568 -2.9906 4.0996 -2.0780 -1.0449 2.3655 -0.7934 -0.1152 -6.9778 4.0285 2.1175 -6.7669 3.6952 0.8325 -5.9825 3.7006 3.1198 -5.5416 3.0180 0.4518 -4.8467 3.0770 2.7620 1.1764 0.7393 1.1950 -0.0917 -0.7268 -0.2431 -0.0690 1.3444 1.6266 -1.2462 -0.1701 0.1637 -3.3856 2.0986 0.8808 -2.4558 1.5267 1.6501 6.4801 -3.7381 -2.9529 2.6123 -1.8485 -0.9761 1.1743 -0.2698 0.3042 -4.5964 2.7135 1.3664 -1.2525 0.9256 1.1321
6.4030 -4.6483 -3.2191 7.1476 -2.5497 -2.7162 2.7497 -2.4563 1.1011 4.1072 -3.3131 -1.7221 4.7893 -2.9644 -3.0260 4.2545 -2.1775 -0.7332 2.1312 -1.1357 -0.7276 -6.6887 4.2082 2.3681 -5.5426 4.4896 3.0113 -6.7092 3.1803 1.3454 -4.3331 3.7571 2.6856 -5.5876 2.4989 1.0529 0.1842 -0.0114 -1.3506 0.4329 -0.6018 0.9754 -1.0359 0.6899 -1.0094 -0.7129 0.0332 1.2870 -3.0970 2.0643 1.5591 -2.7655 1.3685 0.4704 6.2384 -3.3302 -2.9540 2.9602 -1.9668 -0.0028 0.8969 -0.6466 -0.4032 -4.3316 2.7854 1.7481 -1.4913 0.7266 0.2595
6.0105 -3.1544 -3.9678 7.1398 -1.3668 -3.1082 2.4044 -3.2976 0.8740 4.5194 -2.1892 -1.4185 5.8716 -2.8167 -1.6571 3.4816 -3.2757 -1.2564 1.5678 -1.9492 -0.8466 -6.2115 4.7777 2.0321 -5.2427 5.1776 1.1904 -6.1725 3.4399 2.5914 -4.1551 4.2770 0.8616 -5.1612 2.6087 2.2842 -0.2604 -0.5120 -1.0590 0.2612 -1.3407 1.1484 -1.3503 0.2407 -0.4795 -0.7433 -0.6257 1.6872 -2.9415 2.2446 1.0287 -2.7082 0.9741 1.3694 6.4118 -2.3371 -2.9652 2.4443 -2.8411 -0.2632 0.5132 -1.2905 -0.2830 -4.0876 3.0358 1.3881 -1.5910 0.2206 0.8491
7.4364 -3.2928 -0.9061 7.4266 -2.0965 -2.8493 1.5868 -3.6266 -0.7636 4.4673 -2.5217 -1.7079 5.5272 -3.4522 -2.2440 3.1579 -2.8516 -2.3854 1.5934 -1.3773 -1.4250 -6.2887 4.5680 2.7109 -5.9537 4.6862 1.4146 -5.6004 3.6033 3.5473 -4.9225 3.8335 0.8550 -4.6480 2.8123 3.0228 0.2823 0.4975 -0.9697 -0.1561 -1.5043 0.3076 -0.7455 1.1686 -0.2058 -1.1281 -0.8818 1.0015 -3.3397 2.0646 0.9336 -2.4395 1.2585 1.5035 6.8771 -2.8442 -2.0550 2.0304 -2.6858 -1.4116 0.5762 -0.7919 -0.7275 -4.2855 2.9128 1.6097 -1.4538 0.5214 0.7443
7.1677 -1.8237 -2.9072 5.6748 -3.1049 -4.0632 1.8972 -3.4504 0.7738 4.5929 -2.5198 -1.1486 5.8055 -3.2590 -1.6589 3.4156 -3.4649 -1.0656 1.8593 -1.6953 -0.7745 -6.4364 4.4649 2.2037 -5.1487 4.8500 2.2165 -6.7774 3.1069 1.8273 -4.1045 3.8941 1.8985 -5.8067 2.2314 1.5145 0.6275 0.2708 -1.0354 0.1277 -1.1108 0.8807 -0.4214 1.1768 -0.6166 -0.8424 -0.2635 1.2717 -3.3481 1.6558 1.3241 -2.1271 1.9305 0.8601 6.1716 -2.7355 -3.0101 2.3203 -2.8734 -0.2224 0.8997 -0.8357 -0.3208 -4.3969 2.6192 1.5598 -1.1504 0.9365 0.4926
5.6811 -3.0769 -3.9518 7.1012 -1.4692 -3.1840 1.9643 -4.0398 0.4880 4.6975 -2.4834 -1.0927 4.8467 -1.6082 -2.3213 3.5061 -3.4132 -1.2416 2.0022 -1.8417 -0.2923 -6.2740 4.7033 1.7412 -5.6813 4.7217 0.5349 -5.7874 3.7962 2.7629 -4.5717 3.8261 0.2594 -4.7559 2.9721 2.5035 0.7460 0.0950 -0.1377 -0.1412 -1.8599 0.9624 -0.3925 0.8477 0.3338 -1.2160 -1.1573 1.3804 -3.0111 2.1084 0.8037 -2.5176 1.0583 1.4703 6.0170 -2.0326 -3.1571 2.4102 -3.1535 -0.2325 0.8752 -1.2123 0.1468 -4.1133 2.9586 1.1889 -1.3855 0.2606 1.0348
6.2006 -4.7686 -2.3819 6.9894 -3.3269 -3.9654 1.5177 -2.9731 -1.4517 4.5454 -2.2245 -2.0690 6.0277 -2.4793 -1.9228 3.8244 -2.7846 -0.8635 2.2550 -1.1676 -0.1570 -6.8696 4.1239 2.1751 -7.0025 3.0120 1.4318 -5.5528 4.5386 2.6205 -5.8309 2.2318 1.0835 -4.4694 3.8091 2.2983 1.2421 0.5875 0.9976 -0.1899 -0.8416 -0.3180 0.0825 1.3793 1.3454 -1.2681 -0.1011 0.0058 -3.5148 1.7111 1.1266 -2.2122 1.9710 1.2438 6.4497 -3.5378 -2.8898 2.3924 -2.3359 -0.8772 1.1234 -0.4890 0.2005 -4.5954 2.5949 1.4894 -1.1446 1.0707 0.8780
6.5355 -5.0873 -3.0150 6.6053 -2.9072 -3.6844 2.9816 -2.0330 0.7747 4.6794 -3.4450 -1.0855 6.1676 -3.4443 -1.3746 4.0500 -2.0985 -1.3848 1.9643 -1.0194 -1.0880 -6.8084 4.0733 2.7447 -5.9446 3.5737 3.6451 -6.5313 3.9321 1.3277 -4.7445 2.8936 3.1938 -5.4138 3.3047 0.9160 0.1654 0.4261 -1.5158 0.2512 -0.6075 0.6563 -1.0864 1.0595 -1.1368 -0.9130 -0.0216 1.0053 -3.2179 2.0833 1.5532 -2.8803 1.5435 0.3779 6.4423 -3.7513 -2.8153 2.9441 -1.7372 -0.4139 0.8416 -0.3582 -0.6512 -4.4662 2.7396 1.8805 -1.6218 0.8809 0.0901
4.3600 -4.5670 -2.9391 5.1194 -3.0670 -4.4860 2.1922 -3.0089 -0.5016 4.9638 -1.8532 -1.5380 5.8243 -2.9061 -2.1901 4.4750 -2.3780 -0.2089 2.7318 -0.9288 0.4280 -6.8573 3.8586 1.6093 -5.6677 4.4701 1.4761 -6.9285 2.4110 1.5884 -4.4619 3.6798 1.3052 -5.8080 1.6853 1.4348 1.5101 0.9099 1.1832 0.3009 -0.8300 0.0256 0.2636 1.6279 1.3397 -0.8567 -0.1577 0.1694 -3.3104 1.5370 1.1022 -2.0575 1.9789 0.9834 5.0724 -3.4870 -3.3400 2.9954 -2.1608 -0.1321 1.5384 -0.2772 0.5531 -4.5036 2.3294 1.2783 -0.8955 1.1336 0.8590
6.3282 -3.9020 -3.6892 7.5740 -3.7832 -1.7804 1.5007 -3.4173 -0.7448 4.6495 -2.6583 -1.2735 5.7810 -2.2119 -2.1706 3.3563 -2.6820 -2.0586 2.0352 -1.1412 -0.8413 -6.7263 4.1953 2.4547 -6.8856 3.3234 1.4445 -5.4240 4.3471 3.0753 -5.7554 2.5421 0.9793 -4.3797 3.6190 2.6410 1.1216 0.8189 0.0331 -0.2859 -1.1417 0.0008 0.0053 1.5770 0.5587 -1.3178 -0.4379 0.5052 -3.4850 1.8392 0.9932 -2.2137 1.8081 1.3980 6.6608 -3.3797 -2.4842 2.1892 -2.4806 -1.1337 0.9944 -0.4926 -0.2373 -4.5339 2.6646 1.5414 -1.1891 0.9937 0.7882
5.2452 -3.6899 -4.3793 7.3120 -3.1379 -3.5921 2.4987 -3.3023 0.3346 4.7701 -2.1521 -1.7334 5.4756 -3.4528 -2.0520 4.4493 -2.0433 -0.2548 2.3094 -1.0209 -0.1604 -6.8543 4.2453 1.9762 -6.7712 2.9037 1.9861 -5.6703 5.0320 1.6926 -5.5015 2.2499 1.7203 -4.4993 4.4194 1.4389 0.7822 0.7147 0.0550 -0.0084 -1.4897 0.6188 -0.5446 1.2286 0.3062 -1.2432 -1.0009 0.8715 -3.1131 2.2926 1.2321 -2.8698 1.0061 0.9450 6.1292 -3.3802 -3.4002 2.9718 -2.2189 0.0107 1.0659 -0.5905 0.2177 -4.3843 2.9557 1.4396 -1.5495 0.4313 0.7268
3.9990 -3.8790 -3.3609 4.5420 -1.9229 -4.4028 2.6522 -3.5096 0.0892 4.9980 -1.5873 -1.3602 5.6295 -2.5484 -2.3403 4.6966 -2.2794 -0.0521 2.6821 -1.2211 0.5632 -6.5580 4.2207 1.3071 -5.4083 4.8622 1.0359 -6.5500 2.7800 1.4741 -4.1708 4.1109 0.9147 -5.4014 2.0894 1.3560 1.2085 0.5320 0.8924 0.2450 -1.6621 0.6052 -0.1187 1.0606 1.1005 -0.9963 -1.1577 0.7692 -2.8653 2.1131 0.8635 -2.5262 0.8631 1.2009 4.6852 -2.7186 -3.4857 3.2115 -2.4209 0.1448 1.3961 -0.7711 0.6202 -4.1372 2.7684 1.0689 -1.2135 0.2776 0.9962
6.8101 -3.3490 -2.2442 6.5515 -1.7794 -3.8807 1.2253 -3.9015 -0.3517 3.8138 -2.6891 -2.3246 5.0304 -1.8471 -2.0115 3.4524 -3.5048 -1.1039 2.1355 -1.7628 -0.1447 -6.4047 4.4697 1.9020 -6.5167 3.6234 0.8638 -5.1909 4.4800 2.6954 -5.4280 2.7185 0.5479 -4.1867 3.6352 2.4022 1.3333 0.2789 0.6556 -0.2912 -1.4338 0.1443 0.2432 1.1658 1.0005 -1.3025 -0.6129 0.4833 -3.2979 1.7267 0.9136 -2.0434 1.6947 1.3655 6.1866 -2.3044 -2.8399 2.1280 -3.0886 -0.5253 1.0869 -0.9775 0.2450 -4.2951 2.7000 1.2816 -1.0401 0.7579 0.9257
6.4809 -5.0306 -1.4160 6.9521 -3.8953 -3.3354 2.2133 -1.0154 -2.6760 4.3792 -3.0040 -1.2337 4.7146 -3.8591 -2.4345 4.2855 -1.5445 -1.6179 2.4261 -0.7571 -0.3610 -6.9613 3.8053 2.4163 -6.4634 4.1431 1.2144 -6.2483 2.8554 3.2485 -5.2151 3.5594 0.7590 -5.0912 2.3184 2.8219 1.0644 0.1543 1.3128 0.1020 -0.1127 -0.8832 -0.2079 0.6777 1.7712 -1.0781 0.3734 -0.4557 -3.2868 2.1809 0.9769 -2.5207 1.2197 1.4987 6.1680 -4.2217 -2.4562 2.8513 -1.0925 -1.6315 1.2282 -0.2222 0.0316 -4.5329 2.6724 1.5154 -1.2601 0.7952 0.9342
6.4438 -5.5379 -2.7644 7.2636 -3.4756 -3.2805 1.7751 -2.3564 -1.8740 4.4024 -3.3726 -1.7528 5.8169 -3.7535 -1.3691 4.0663 -2.0080 -1.1922 2.3690 -0.4796 -0.6149 -7.1270 3.6874 2.5499 -7.1589 2.5247 1.8768 -5.8493 4.3167 2.8263 -5.9218 1.9108 1.4328 -4.7032 3.7422 2.4149 1.2675 1.2325 0.5335 -0.1039 -0.4666 -0.4831 0.0596 1.8996 0.9817 -1.2250 0.1585 -0.0689 -3.5659 1.7444 1.2068 -2.2984 2.1614 1.1915 6.5748 -4.2027 -2.5805 2.5934 -1.6822 -1.2607 1.2053 0.0809 -0.1605 -4.7201 2.4773 1.6758 -1.1642 1.3986 0.7116
4.4121 -2.6867 -4.1207 6.4644 -3.6876 -4.1330 2.2596 -2.5899 -1.3153 4.9787 -3.2604 -1.2327 5.7475 -2.4129 -2.2188 4.3773 -2.3716 -0.1727 2.4410 -1.3412 0.6559 -6.7570 4.2357 1.4335 -6.0754 4.3185 0.2784 -6.2651 3.3830 2.4989 -4.8511 3.5592 0.1060 -5.1305 2.6794 2.3323 0.9413 -0.2291 2.0556 0.2124 -0.7115 -0.1932 -0.3027 0.4819 2.2758 -0.9498 -0.0644 0.0204 -3.1480 2.0477 0.7937 -2.4634 1.2671 1.6333 5.6087 -3.0149 -3.5779 2.9023 -2.1372 -0.3761 1.1974 -0.8165 0.8724 -4.3703 2.7604 1.0834 -1.2293 0.5909 1.3009
6.8831 -3.8279 -3.3861 6.9417 -2.2263 -1.7641 1.6392 -3.5832 -0.0059 3.9547 -3.4695 -2.2114 4.9108 -2.6078 -3.0088 3.8264 -2.9838 -0.7834 2.1015 -1.3801 -0.6431 -6.6653 4.2285 2.2864 -6.8330 2.9277 1.9936 -5.3349 4.8061 2.2503 -5.6871 2.1140 1.6360 -4.2739 4.0447 1.9247 1.0592 0.6959 -0.5215 -0.0708 -1.1580 0.5319 -0.0477 1.5494 -0.1494 -1.1002 -0.3587 0.8799 -3.3751 1.7034 1.2824 -2.1565 2.0140 0.8378 6.3348 -2.8581 -2.6164 2.3885 -2.7120 -0.4311 1.0599 -0.6113 -0.2049 -4.4401 2.6294 1.5863 -1.1151 1.0635 0.5169
6.9308 -2.9106 -2.3900 5.9401 -2.7360 -4.4335 2.0330 -3.4217 1.0918 3.8879 -3.2223 -1.8660 4.7276 -2.1008 -2.4426 3.9328 -3.1808 -0.3498 2.2950 -1.4749 -0.1674 -6.5606 4.2956 2.0285 -6.2181 3.3400 2.9088 -5.7536 4.4967 0.8394 -5.0473 2.5197 2.6668 -4.6645 3.7362 0.6203 1.0475 0.4515 -0.5544 0.0028 -1.3021 0.7357 -0.1434 1.2531 -0.3756 -1.1088 -0.5573 0.8941 -3.1096 1.8458 1.4772 -2.3662 1.6410 0.3881 5.8941 -2.6350 -3.2167 2.6214 -2.7458 0.2539 1.1312 -0.7782 -0.0184 -4.2794 2.6874 1.5689 -1.1926 0.7984 0.3407
6.0280 -3.3798 -4.5141 7.3559 -4.2738 -2.8879 2.4130 -1.4950 -1.9500 4.5373 -3.3682 -1.6699 5.6803 -2.6296 -2.3276 4.0300 -2.5480 -0.5041 2.0321 -1.6374 0.3544 -6.8706 4.3285 1.8464 -6.5364 4.0451 0.5758 -6.0407 3.8420 2.9320 -5.3527 3.2519 0.2990 -4.9468 3.1039 2.6695 0.3913 -0.8812 1.8378 0.3657 0.0342 -0.3926 -0.7578 -0.0569 2.1596 -0.7007 0.8010 -0.0896 -3.4444 1.9600 0.9012 -2.4189 1.5912 1.6732 6.4422 -3.5405 -3.2344 2.7374 -1.8358 -0.8188 0.9370 -0.8553 0.6077 -4.5648 2.7851 1.2921 -1.3164 0.7586 1.2404
7.4729 -3.1502 -2.1440 6.1246 -4.5864 -0.9959 1.9532 -3.2241 -0.4980 4.6009 -1.9666 -2.3626 5.5119 -2.2655 -1.1945 3.3620 -2.8355 -2.3844 1.7882 -1.1973 -1.6552 -6.4144 4.1088 3.0170 -5.8544 4.4120 1.8330 -5.9155 2.9794 3.7757 -4.7553 3.6105 1.3191 -4.8965 2.2455 3.2966 0.7012 0.8378 -1.3018 -0.2354 -1.1081 -0.2347 -0.4082 1.6199 -0.7917 -1.2653 -0.3778 0.2409 -3.1826 1.7410 1.5095 -2.4496 1.9228 0.4083 6.3617 -3.4727 -1.4409 2.3168 -2.4401 -1.3693 0.8194 -0.4718 -1.0126 -4.2666 2.5572 2.0113 -1.3690 1.0611 -0.0261
4.3961 -1.1058 -3.8100 5.7616 -2.8232 -4.4382 2.4826 -3.4692 1.3871 4.3221 -3.1205 -1.5060 5.4511 -2.3132 -2.1047 4.3330 -2.9115 -0.0085 2.3575 -1.5876 0.0061 -6.3529 4.4496 1.4032 -5.1416 5.0039 1.5815 -6.4621 3.0323 1.1153 -3.9506 4.1819 1.4868 -5.3550 2.2750 1.0266 0.8523 0.1772 -0.2389 0.2046 -1.6456 1.2067 -0.4450 0.7718 -0.0108 -0.9939 -1.0767 1.4354 -2.7876 2.1393 1.1516 -2.6409 0.8230 0.9773 5.2296 -2.1463 -3.5715 2.9463 -2.7159 0.5375 1.1742 -0.9924 0.3402 -4.0299 2.8596 1.2267 -1.3515 0.1943 0.8065
4.5508 -3.6261 -4.6397 6.5737 -2.7213 -4.1054 2.7173 -3.2737 0.8122 4.4541 -2.1439 -1.7957 5.0605 -3.4099 -2.3572 4.5241 -2.1556 -0.2852 2.5967 -0.9739 0.3999 -6.8401 4.1180 1.4694 -6.4062 3.1922 2.3421 -6.0248 4.4476 0.3171 -5.1319 2.5266 2.1290 -4.8495 3.8222 0.1217 1.0415 0.7499 0.4577 0.2813 -1.4238 1.1702 -0.2671 1.2805 0.7677 -0.9475 -0.9285 1.4340 -3.0882 2.1351 0.8490 -2.5706 1.0761 1.4862 5.4937 -3.1857 -3.7723 3.1484 -2.2352 0.3240 1.3136 -0.5572 0.6188 -4.3599 2.7988 1.0543 -1.2700 0.4877 1.2021
4.0411 -2.1705 -3.9141 6.3011 -1.8587 -3.9810 2.2619 -3.8742 0.4603 4.9455 -2.1191 -1.0156 5.2889 -3.0627 -2.1457 4.4099 -2.8596 0.1924 2.4121 -1.5507 0.2265 -6.4722 4.3930 1.5753 -6.1564 3.7775 0.4226 -5.5761 4.2907 2.7104 -4.9258 3.0119 0.3201 -4.4446 3.5697 2.6120 1.0669 0.3077 0.5782 -0.0642 -1.7820 0.1872 -0.2176 0.9706 0.6129 -1.2644 -1.1622 0.2454 -2.8578 2.1221 1.2446 -2.6399 1.0021 0.5412 5.3003 -2.2904 -3.4287 2.8988 -2.8395 0.2893 1.1615 -1.0237 0.4055 -4.0951 2.8627 1.3754 -1.3739 0.2853 0.4858
6.6724 -2.6364 -1.3273 6.9799 -1.8397 -3.4425 3.4299 -1.5492 0.3680 3.9392 -2.7432 -2.5489 5.2167 -3.4205 -2.9888 3.4828 -3.3285 -1.2309 1.4582 -2.2624 -0.6804 -6.1924 4.7723 2.2367 -4.9906 5.2688 1.8978 -6.3992 3.3361 2.2436 -3.9144 4.3686 1.5334 -5.3958 2.5042 1.9070 -0.8187 -1.8725 -0.3812 0.7132 -0.2201 0.4824 -1.9185 -1.0166 0.0103 -0.3131 0.5660 0.8635 -2.9287 2.2492 1.1432 -2.8752 0.9251 0.9933 6.3737 -2.5385 -2.6449 2.8120 -2.2609 -0.4147 0.4541 -1.5081 -0.1431 -4.0829 3.0291 1.5225 -1.7025 0.1770 0.6009
4.7244 -3.3767 -4.2810 6.1240 -1.9501 -3.1764 2.9442 -2.3161 1.5697 4.0949 -3.5801 -1.2425 5.2988 -3.9354 -2.0826 4.4275 -2.4506 -0.2923 2.4018 -1.2290 -0.4303 -6.7027 4.0379 2.0076 -5.9585 3.6250 3.0479 -6.2659 3.7565 0.6536 -4.7199 2.9072 2.8105 -5.1144 3.0953 0.4394 0.6763 0.1767 -1.1381 0.5289 -0.7225 1.0964 -0.5809 0.8602 -0.9125 -0.6426 -0.0911 1.3011 -3.0092 1.9830 1.4389 -2.5352 1.3780 0.3481 5.4386 -2.9608 -3.2083 3.1751 -2.0078 0.4059 1.2234 -0.5855 -0.1745 -4.2899 2.6372 1.5592 -1.2386 0.7485 0.2600
5.6527 -4.9129 -3.8581 6.6285 -3.0280 -3.0219 3.7021 -0.3919 -1.5074 3.9456 -3.5455 -1.4715 5.2005 -4.3749 -1.6207 4.1542 -2.4776 -0.4220 2.1339 -1.3401 -0.0428 -7.0147 3.9073 2.1581 -6.0111 4.4706 1.4639 -6.8774 2.5425 2.6268 -4.8035 3.7142 1.1806 -5.7517 1.8508 2.3704 0.1731 -0.7514 1.0486 1.0077 0.8010 -0.5947 -0.9583 0.1217 1.2616 -0.0583 1.6083 -0.4000 -3.4611 1.6805 1.2648 -2.2627 2.1152 0.8498 5.9014 -4.0004 -2.8881 3.3181 -1.2698 -0.7447 1.1404 -0.4287 0.1721 -4.6405 2.4460 1.6165 -1.1190 1.2629 0.5591
5.2610 -2.3683 -4.5464 7.0873 -3.3634 -3.6160 1.7890 -3.4744 -0.2859 4.5743 -2.3477 -1.6188 4.9517 -3.5097 -2.5094 4.0963 -2.8507 -0.2767 2.4226 -1.3801 0.5407 -6.8390 4.1513 1.5510 -6.9302 2.8484 1.2346 -5.5313 4.7622 1.6985 -5.7245 2.0617 1.0566 -4.4158 4.0290 1.5248 1.4000 0.6333 1.1489 -0.0387 -1.1559 0.4224 0.2218 1.4502 1.3745 -1.1307 -0.3937 0.6351 -3.3737 1.7275 0.9493 -2.1224 1.8822 1.3869 5.9012 -3.0706 -3.5809 2.6239 -2.6011 -0.0736 1.2916 -0.6168 0.6605 -4.4955 2.6014 1.2054 -1.0188 0.9851 1.1184
4.5089 -3.9032 -3.5736 5.8030 -2.1238 -4.1872 1.9523 -2.9953 -1.2196 5.0089 -2.0839 -1.0989 5.8931 -2.9754 -1.9351 4.1263 -2.9461 -0.2287 2.4124 -1.5327 0.5488 -6.7197 4.1414 1.5500 -6.7640 3.0722 0.7373 -5.4828 4.4784 2.2293 -5.5780 2.2602 0.5483 -4.3862 3.7185 2.0538 1.2202 0.0947 1.7133 0.1936 -0.8231 -0.2709 0.0555 0.9339 1.8911 -0.8870 -0.0360 -0.1049 -3.3274 1.6301 0.9499 -2.0457 1.8356 1.2544 5.4157 -2.9227 -3.3483 2.7045 -2.4989 -0.3895 1.2945 -0.7602 0.6787 -4.4161 2.5503 1.1712 -0.9818 0.8857 1.0307
6.6692 -1.9608 -3.7357 6.3776 -4.2011 -3.4064 1.6160 -3.1361 -1.2360 4.7675 -2.2497 -1.2956 4.6593 -2.6323 -2.7529 3.8706 -3.1209 -0.4475 2.2242 -1.6748 0.4803 -6.6865 4.3175 1.7057 -6.7779 3.2775 0.8595 -5.4347 4.5845 2.3886 -5.6255 2.4250 0.6380 -4.3713 3.7862 2.1821 1.1990 0.1239 1.5641 -0.0445 -0.9632 -0.1981 0.0607 0.9912 1.7870 -1.0974 -0.1483 0.0081 -3.3936 1.6947 1.0191 -2.1000 1.8561 1.3036 5.9906 -3.0479 -3.2954 2.4463 -2.6350 -0.4852 1.1644 -0.8157 0.6023 -4.4497 2.6487 1.2637 -1.0645 0.8807 1.0506
4.2525 -2.9675 -4.1918 4.5542 -4.7967 -2.8618 2.3130 -3.0093 -0.1994 5.0064 -1.7199 -1.6127 5.7587 -2.7627 -2.4023 4.5772 -2.2588 -0.2664 2.8014 -0.7370 0.1013 -6.8204 3.7393 1.6907 -5.7227 3.9188 2.4451 -6.7884 2.8037 0.5835 -4.5176 3.1671 2.1557 -5.6653 2.1157 0.3154 1.5156 1.1807 0.4850 0.4014 -0.9611 0.5769 0.2549 1.8141 0.8150 -0.7658 -0.3720 0.8884 -3.2577 1.5491 0.8497 -2.0586 1.7805 1.3890 4.7942 -3.6323 -3.1441 3.0948 -2.0677 -0.1251 1.5943 -0.1574 0.3700 -4.4621 2.2926 1.1274 -0.8603 1.0808 1.0105
4.5051 -4.3323 -3.8973 6.6685 -4.7128 -3.2857 3.5783 0.1642 -1.0985 4.4160 -2.9459 -1.3751 5.4933 -2.7944 -2.4231 4.5750 -1.8659 -0.3302 2.3646 -1.2863 0.2820 -6.9253 3.9608 1.8958 -5.8213 4.7174 1.7731 -6.8246 2.5183 1.7833 -4.5365 4.0877 1.5332 -5.6307 1.9393 1.5619 0.2638 -1.2203 1.3045 0.7766 0.5108 -0.2971 -1.0434 -0.6217 1.4865 -0.4388 1.0642 -0.1273 -3.0858 2.2295 1.2174 -2.7615 0.9574 0.9752 5.6404 -4.0559 -3.2124 3.4565 -0.8707 -0.4530 1.1525 -0.6774 0.4531 -4.4170 2.7469 1.4250 -1.4059 0.4872 0.8088
6.3855 -1.4957 -3.8329 6.4780 -3.7313 -3.3818 2.8677 -2.4436 1.5826 4.7354 -2.2305 -1.1689 4.5847 -2.4107 -2.6616 3.8614 -3.2314 -0.4460 1.7838 -2.0883 -0.4550 -6.3021 4.6041 2.0344 -5.2813 4.5516 2.9064 -6.2756 3.7783 0.8421 -4.1566 3.6741 2.6476 -5.2263 2.9705 0.6045 -0.1700 -1.0127 -1.1291 0.4881 -0.7620 1.1815 -1.3148 -0.1693 -0.8632 -0.5873 0.0108 1.4282 -2.9025 2.1284 1.3563 -2.7598 1.0870 0.5360 5.9189 -2.6485 -3.2962 2.8067 -2.5229 0.3607 0.7078 -1.3018 -0.1526 -4.1061 2.8994 1.5433 -1.5357 0.3445 0.3636
5.2621 -3.2353 -4.4682 5.2738 -0.9928 -4.0628 2.6654 -3.4882 1.4991 4.2256 -2.9823 -1.5971 5.5270 -2.5462 -2.2357 4.3313 -2.8376 -0.0920 2.2873 -1.6544 0.1007 -6.4139 4.5021 1.4416 -5.8540 3.8383 2.4674 -5.8194 4.4097 0.1221 -4.6611 3.0394 2.2535 -4.7241 3.6524 -0.0748 0.5620 -0.2009 -0.4114 0.3623 -1.4266 1.6546 -0.6727 0.4790 -0.1001 -0.7891 -0.7817 1.9461 -2.8637 2.1843 0.8849 -2.6043 0.9284 1.2747 5.3181 -2.1468 -3.6638 2.9831 -2.7408 0.5803 1.0589 -1.1444 0.4069 -4.1102 2.9042 1.0279 -1.3443 0.2401 1.0458
5.7354 -0.8340 -3.0750 6.6649 -2.6648 -4.0694 3.3575 -1.7813 0.9335 4.0827 -3.0077 -1.9622 5.5861 -2.8722 -1.9253 3.5899 -3.5591 -0.6445 1.5065 -2.4921 -0.3147 -6.1002 4.8234 1.8702 -4.8515 5.2903 1.6991 -6.3513 3.3970 1.7934 -3.7635 4.3669 1.4376 -5.3391 2.5453 1.5511 -0.7734 -1.9744 -0.3014 0.7287 -0.4375 0.7970 -1.8668 -1.0719 -0.0009 -0.2912 0.3906 1.0896 -2.8210 2.2113 1.0821 -2.8192 0.8803 0.9819 6.0487 -2.1497 -3.1486 2.8271 -2.4933 0.0882 0.4805 -1.6846 0.0907 -3.9724 3.0351 1.3615 -1.6584 0.0824 0.6660
3.4853 -2.4108 -3.5276 5.5018 -1.5432 -4.1410 2.0665 -3.3881 -0.8758 5.1424 -2.3098 -1.0015 5.3592 -3.0775 -2.2855 4.2885 -3.1098 -0.0421 2.5663 -1.5927 0.5425 -6.5006 4.2288 1.2304 -6.0894 3.8476 0.0092 -5.7520 3.8110 2.4010 -4.8995 3.0304 -0.1303 -4.6497 3.0499 2.2664 1.3526 0.0068 1.7282 0.1718 -1.2471 0.0398 0.1537 0.7909 1.9443 -0.9469 -0.5258 0.2535 -3.0245 1.8137 0.6638 -2.1177 1.3871 1.5448 4.8256 -2.2554 -3.4148 2.8396 -2.7297 -0.1892 1.3729 -0.9844 0.8185 -4.1801 2.6350 0.9419 -0.9660 0.5733 1.2236
3.8764 -1.7925 -3.8725 3.5032 -3.8169 -2.8877 2.7774 -3.3907 0.4417 5.2238 -1.5453 -1.1996 5.4624 -2.5371 -2.3127 4.8448 -2.2480 0.0872 2.7816 -1.0755 0.0933 -6.4747 4.0641 1.5684 -5.3173 4.6227 1.9623 -6.4699 2.7457 0.9638 -4.0732 3.8967 1.7965 -5.3134 2.0764 0.8117 1.1847 0.6117 -0.0615 0.4333 -1.5706 0.6473 -0.1672 1.0959 0.1037 -0.8212 -1.1120 0.8166 -2.7612 2.0234 1.1720 -2.4945 0.8133 0.6738 4.1774 -2.8076 -3.0286 3.3467 -2.3263 0.2267 1.4825 -0.6746 0.1924 -4.0483 2.6597 1.2565 -1.1533 0.2878 0.5488
3.9869 -1.1725 -3.3867 6.1209 -1.7807 -3.9003 1.7109 -3.7196 -0.7054 4.9233 -2.7279 -1.0007 4.7955 -3.1695 -2.4403 4.0050 -3.5104 -0.0925 2.4378 -1.8062 0.4306 -6.4344 4.2984 1.3728 -6.4075 3.4035 0.3707 -5.3041 4.3940 2.2775 -5.2510 2.5453 0.1993 -4.2335 3.5949 2.1140 1.5110 0.2579 0.9905 -0.0131 -1.5304 0.4522 0.3693 1.1077 1.2673 -1.0713 -0.7364 0.7094 -3.0961 1.7104 0.7380 -1.9618 1.5798 1.4285 5.0680 -1.9862 -3.3155 2.5829 -3.0283 -0.1907 1.3392 -1.0031 0.5540 -4.1843 2.6165 1.0243 -0.8935 0.6627 1.1031
5.9751 -2.2489 -3.9416 4.9070 -0.5354 -2.8814 1.4521 -4.1111 0.3370 4.1303 -3.4362 -1.7001 5.3806 -2.5861 -1.7016 3.7367 -3.7520 -0.2722 2.1993 -1.9554 -0.1831 -6.2838 4.4457 1.7150 -6.5440 3.1723 1.3728 -4.9073 4.8870 1.8387 -5.4506 2.2521 1.1245 -3.8963 4.0289 1.6088 1.2273 0.1468 -0.3783 0.0343 -1.5075 0.9134 0.1899 1.1047 -0.0629 -0.9318 -0.6138 1.2044 -3.1645 1.6296 0.9575 -1.8402 1.7946 0.9793 5.3633 -1.6684 -2.8818 2.3194 -3.3182 -0.0119 1.1462 -1.1227 0.0575 -4.1611 2.6392 1.2283 -0.8821 0.7547 0.6776
3.5303 -1.9757 -4.0852 5.1294 -3.5677 -4.4270 2.4619 -3.2501 0.7548 4.8294 -2.2649 -1.4021 4.1353 -3.3047 -2.2512 4.6399 -2.5522 0.0709 2.9265 -0.9684 0.5149 -6.7025 3.7729 1.1999 -5.6481 4.0365 1.9905 -6.6063 2.7280 0.1993 -4.4358 3.2492 1.8664 -5.4736 2.0141 0.0771 1.7276 0.9522 1.1128 0.4769 -1.0529 0.6220 0.4711 1.6613 1.2564 -0.6871 -0.3955 0.7708 -3.1389 1.4420 0.8890 -1.9032 1.8347 1.2083 4.3489 -2.9807 -3.6929 3.2122 -2.3189 0.4820 1.7404 -0.3602 0.8182 -4.3234 2.2669 0.9455 -0.7108 1.0341 1.0797
4.7417 -0.5334 -3.2584 6.2668 -2.0788 -3.9698 3.2706 -2.7087 1.3071 3.8298 -3.1201 -2.0401 5.1292 -2.3724 -1.8697 3.4981 -3.8680 -0.7681 1.6173 -2.5004 -0.3334 -6.0502 4.7007 1.5844 -4.8695 4.7954 2.2197 -6.2759 3.6249 0.6379 -3.8162 3.8405 1.9352 -5.3038 2.7286 0.3942 -0.3984 -1.3651 -0.5415 0.9622 -0.8602 1.3897 -1.3698 -0.4096 -0.0655 0.0596 0.0415 1.8221 -2.8902 1.9978 0.6971 -2.2069 1.1942 1.5186 5.4529 -1.6812 -3.1504 2.8042 -2.9513 0.2000 0.7231 -1.5989 0.1598 -4.0077 2.8261 1.0655 -1.1668 0.2983 1.0656
3.5841 -0.9224 -3.0386 5.6970 -1.3753 -3.7701 1.5329 -4.0842 -0.3256 4.5012 -3.4188 -1.5384 5.0344 -2.0027 -1.5436 3.8978 -3.7457 -0.1899 2.4037 -1.9474 0.0887 -6.1831 4.3357 1.5046 -6.3306 3.3221 0.6343 -4.9228 4.5123 2.1997 -5.2299 2.4090 0.3943 -3.9052 3.6641 1.9733 1.5390 0.1930 0.3903 0.0004 -1.6667 0.5284 0.4429 1.0886 0.6921 -1.0164 -0.8326 0.8104 -3.0111 1.6126 0.7038 -1.8177 1.5510 1.2973 4.8363 -1.4203 -2.9042 2.4617 -3.3029 -0.1595 1.3340 -1.1339 0.3111 -4.0496 2.5536 1.0322 -0.7991 0.6108 0.9093
5.5940 -2.0954 -4.2507 4.5436 -0.4144 -3.1150 3.3818 -2.6414 1.4806 3.7929 -3.2233 -1.9241 5.1016 -2.4801 -2.0043 3.6481 -3.8566 -0.5599 1.7368 -2.5147 -0.1731 -6.0359 4.6715 1.4045 -4.8624 4.7946 2.0486 -6.2395 3.5713 0.4829 -3.7991 3.8389 1.8033 -5.2583 2.6748 0.2774 -0.2732 -1.3914 -0.4596 1.0481 -0.8189 1.4819 -1.2623 -0.4336 -0.0283 0.1281 0.0854 1.8703 -2.8424 1.9628 0.6376 -2.1441 1.2091 1.4934 5.0291 -1.5342 -3.1552 2.9317 -2.9220 0.3756 0.8399 -1.5891 0.2661 -3.9718 2.7956 0.9645 -1.0867 0.3110 1.0836
2.9561 -1.3868 -2.8361 4.7007 -1.8299 -4.2287 2.1395 -3.8362 0.8536 4.6436 -3.3379 -1.3047 5.0075 -1.9686 -1.8410 4.3792 -3.2906 0.1858 2.7009 -1.6471 0.2507 -6.3563 4.0619 1.5048 -6.3078 2.8482 2.0797 -5.2157 4.5420 0.7476 -5.1197 2.0275 1.9391 -4.1130 3.7802 0.6250 1.6314 0.4027 0.0553 0.2507 -1.5251 0.5137 0.4460 1.2307 0.0991 -0.8520 -0.7520 0.5506 -2.8955 1.5784 1.2294 -1.9003 1.5950 0.3397 4.2366 -1.7348 -3.1026 2.9293 -2.9889 0.4550 1.5501 -0.9207 0.2768 -4.0461 2.4513 1.2380 -0.7651 0.7005 0.3693
3.3198 -1.7436 -4.2217 3.6830 -0.3450 -2.4579 2.9517 -3.5848 1.4908 4.2116 -3.4388 -1.7155 4.8867 -2.4311 -2.6196 4.5172 -3.1283 -0.2631 2.5056 -1.9012 -0.0665 -6.1415 4.2917 1.1865 -5.0596 4.4005 1.9769 -6.1584 3.3051 0.1241 -3.9123 3.5374 1.7605 -5.1013 2.4948 -0.0587 0.9648 -0.2123 -0.4323 0.7727 -1.4417 1.6358 -0.1845 0.5698 -0.0452 -0.3127 -0.7206 1.9841 -2.7361 1.8060 0.5475 -2.0197 1.1115 1.4387 3.9023 -1.3897 -3.0519 3.2400 -2.9120 0.5083 1.4362 -1.1824 0.3697 -3.9209 2.5860 0.8020 -0.8447 0.3290 1.1076
3.7810 -0.8032 -3.5397 4.8673 -0.5447 -1.5492 1.9249 -4.0257 0.7716 3.6718 -3.5395 -2.1551 4.8289 -2.6970 -2.6441 3.8212 -3.8389 -0.6796 2.5280 -1.9423 -0.0755 -6.1516 4.2380 1.4984 -6.3551 3.0316 0.9423 -4.8122 4.6352 1.8897 -5.2347 2.1384 0.7307 -3.7764 3.7981 1.6970 1.6365 0.2035 0.0064 0.1930 -1.6282 0.6494 0.5392 1.1120 0.2426 -0.8225 -0.7755 0.8838 -2.9666 1.4819 0.8754 -1.6498 1.6755 0.9279 4.5096 -1.2426 -2.4861 2.6305 -3.3065 0.0726 1.4782 -1.1171 0.1981 -3.9796 2.4840 1.0852 -0.6616 0.6632 0.6583
4.2012 -0.0935 -2.5169 2.8594 -1.7498 -3.3330 1.9652 -3.7394 -1.0690 5.0885 -2.3661 -0.9297 5.0360 -2.2805 -2.4390 4.2525 -3.5165 -0.4153 2.5480 -2.1482 0.5358 -6.0409 4.3659 1.1495 -5.5822 4.0779 -0.0805 -5.4021 3.7774 2.3115 -4.4491 3.1864 -0.2378 -4.3523 2.9497 2.1587 1.4242 -0.4449 1.6654 0.2453 -1.5358 -0.1394 0.2667 0.3991 1.8736 -0.8345 -0.7556 0.0651 -2.7188 1.7557 0.5452 -1.9680 1.1110 1.4409 3.9071 -1.3788 -2.8257 2.7914 -3.1493 -0.3806 1.4314 -1.3730 0.6921 -3.8350 2.6270 0.8270 -0.8338 0.2813 1.1023

>  <OB_ATOM_TYPES> (1fl3B1)
O.co2 O.co2 O.2 C.3 C.3 C.3 N.am C.ar C.ar C.ar C.ar C.ar C.ar C.ar C.ar C.ar C.2 C.2 C.2 C.2 C.ar C.ar C.ar

>  <ENSEMBLE_RMSD> (1fl3B1)
0.851 0.893 0.927 1.052 1.093 1.108 1.115 1.128 1.158 1.204 1.215 1.227 1.239 1.240 1.251 1.331 1.334 1.347 1.349 1.371 1.373 1.418 1.426 1.426 1.447 1.449 1.486 1.489 1.497 1.511 1.514 1.518 1.524 1.537 1.570 1.574 1.595 1.646 1.657 1.666 1.728 1.733 1.792 1.824 1.884 1.886 2.040 2.088 2.141 2.177

$$$$
