
 OpenBabel03071213D

 25 28  0  0  0  0  0  0  0  0999 V2000
   24.8540   25.1510   44.4230 O   0  0  0  0  0
   23.7640   23.4100   43.2770 O   0  0  0  0  0
   29.9320   21.9760   42.8260 O   0  0  0  0  0
   22.5710   19.3660   38.4320 O   0  0  0  0  0
   28.1010   21.2550   41.7650 C   0  0  0  0  0
   24.4280   19.9240   39.5570 C   0  0  0  0  0
   23.5240   27.2540   40.7490 C   0  0  0  0  0
   24.0090   26.6640   39.5340 C   0  0  0  0  0
   23.7450   26.4400   41.8670 C   0  0  0  0  0
   24.6170   25.4250   39.6050 C   0  0  0  0  0
   28.4020   23.5650   42.4050 C   0  0  0  0  0
   22.7230   21.5430   38.9370 C   0  0  0  0  0
   27.1540   23.9820   41.9020 C   0  0  0  0  0
   23.4320   22.6160   39.5330 C   0  0  0  0  0
   26.1410   20.5740   40.5740 O   0  0  0  0  0
   24.3340   24.6720   43.2830 C   0  0  0  0  0
   28.8520   22.3110   42.3360 C   0  0  0  0  0
   23.2250   20.2720   38.9490 C   0  0  0  0  0
   26.8930   21.6920   41.2150 C   0  0  0  0  0
   25.1010   21.0270   40.1180 C   0  0  0  0  0
   24.3020   25.1910   41.9690 C   0  0  0  0  0
   26.4210   22.9380   41.2590 C   0  0  0  0  0
   24.6420   22.2740   40.1320 C   0  0  0  0  0
   24.7860   24.6530   40.7450 C   0  0  0  0  0
   25.2870   23.4290   40.7560 C   0  0  0  0  0
  1 16  1  0  0  0
  2 16  2  0  0  0
  3 17  2  0  0  0
  4 18  2  0  0  0
  5 17  1  0  0  0
  5 19  1  0  0  0
  6 18  1  0  0  0
  6 20  1  0  0  0
  7  8  2  0  0  0
  7  9  1  0  0  0
  8 10  1  0  0  0
  9 21  2  0  0  0
 10 24  2  0  0  0
 11 13  2  0  0  0
 11 17  1  0  0  0
 12 14  2  0  0  0
 12 18  1  0  0  0
 13 22  1  0  0  0
 14 23  1  0  0  0
 15 19  2  0  0  0
 15 20  1  0  0  0
 16 21  1  0  0  0
 19 22  1  0  0  0
 20 23  2  0  0  0
 21 24  1  0  0  0
 22 25  2  0  0  0
 23 25  1  0  0  0
 24 25  1  0  0  0
M  END
>  <MOLID> (1flrB1)
1flrB1

>  <SMILES_CANONICAL> (1flrB1)
O=C1C=CC2=C(C3=C([O]=C2C1)CC(=O)C=C3)c1ccccc1C(=O)O	

>  <FINGERPRINT> (1flrB1)
0001000000001011000101000000101010100011000001000000100100100010001000001000000000000011000001000001000001111001000001100000010101000010010000010010000000000000000001001000000011000001000000011000000011001000000000001100000100000000000000100000010001000010100010011000000001001001010010000001000011111001100010000100001001001010000110000000001100000001010000000100000010011010000000001001010010000010100000000000000010100000001000000100000000000100010000000000000000000110000100100000000000001100000000000000110000100000000000000000010000000100000100100101000000000001001000010000011001101101101001001000000000000010000000100010101001000001000000000101000000100101000100011001100000000010000010101110000000000001011000001100000000100000000000000100010000001000000101100100000100100000000000101001000010010010000000000000001000110001000000100100000001110010000000011100000010000001000000000000000000000000010100000100001000000000100010001000011010000000001000101100010010000000000010000100000000000001000000010000010100100100

>  <MACCS166> (1flrB1)
000000000000000000000000010000000000000000000000010000001000010000000000000100000000000010000000011000001000000000000001001010110011000110110011110001010100101000111000

>  <OB_MW> (1flrB1)
333.076

>  <OB_logP> (1flrB1)
2.5689

>  <OB_PSA> (1flrB1)
88.51

>  <OB_MR> (1flrB1)
90.2623

>  <OB_ATOMIC_CHARGES> (1flrB1)
-0.240552195 -0.240552195 -0.2908672149 -0.2908672149 0.1333995912 0.1333995912 0.0002107507 5.28e-06 0.0065764012 0.000210378 0.0380017475 0.0380017475 0.0056510775 0.0056510775 -0.4611327103 0.3877521596 0.1807318415 0.1807318415 0.1299889374 0.1299889374 0.07977227 0.0309535323 0.0309535323 0.0065449306 0.0054459055

>  <MCT_HBD> (1flrB1)
1

>  <MCT_HBA> (1flrB1)
5

>  <ENSEMBLE_TOTAL> (1flrB1)
3

>  <ENSEMBLE_COORDS> (1flrB1)
-0.3956 2.0468 3.3771 -1.4856 0.3058 2.2311 4.6824 -1.1282 1.7801 -2.6786 -3.7382 -2.6139 2.8514 -1.8492 0.7191 -0.8216 -3.1802 -1.4889 -1.7256 4.1498 -0.2969 -1.2406 3.5598 -1.5119 -1.5046 3.3358 0.8211 -0.6326 2.3208 -1.4409 3.1524 0.4608 1.3591 -2.5266 -1.5612 -2.1089 1.9044 0.8778 0.8561 -1.8176 -0.4882 -1.5129 0.8914 -2.5302 -0.4719 -0.9156 1.5678 2.2371 3.6024 -0.7932 1.2901 -2.0246 -2.8322 -2.0969 1.6434 -1.4122 0.1691 -0.1486 -2.0772 -0.9279 -0.9476 2.0868 0.9231 1.1714 -0.1662 0.2131 -0.6076 -0.8302 -0.9139 -0.4636 1.5488 -0.3009 0.0374 0.3248 -0.2899
-2.1846 1.6249 2.9153 0.0171 1.0375 2.8297 4.7277 -1.0069 2.0888 -2.5698 -3.6927 -3.2124 3.0095 -1.8835 0.6785 -1.0572 -3.3664 -1.3813 -1.4294 4.2307 -0.2586 -1.0327 3.6371 -1.3966 -1.3833 3.4956 0.9891 -0.5535 2.2696 -1.3706 3.3987 0.6298 1.0573 -2.8403 -1.6520 -2.0763 2.2253 0.8961 0.4773 -2.1826 -0.7562 -1.3334 0.9555 -2.5019 -0.3499 -0.9675 1.5564 2.3273 3.7798 -0.7737 1.3426 -2.1767 -2.9568 -2.3110 1.6929 -1.4878 0.1147 -0.3189 -2.1841 -0.8441 -1.0004 2.2048 1.0034 1.2616 -0.0964 0.0671 -0.8363 -0.9392 -0.8213 -0.5248 1.5471 -0.2262 -0.0102 0.1678 -0.3094
1.6273 3.3394 -0.0806 0.7057 2.2828 -1.8871 4.5860 -1.1806 2.4709 -2.5059 -3.6320 -3.4320 2.8613 -1.9592 1.0166 -0.6648 -3.1518 -1.9821 -2.4171 3.5901 1.2382 -2.8646 2.3931 1.6544 -1.2155 3.6682 0.4311 -2.1251 1.1868 1.3321 2.7107 0.2224 2.3768 -2.6835 -1.5788 -2.3158 1.5093 0.4654 1.8486 -2.1232 -0.7524 -1.4297 1.0344 -2.4447 -0.4213 0.6328 2.7075 -0.7456 3.4727 -0.9862 1.9876 -1.9933 -2.8475 -2.6360 1.5350 -1.5786 0.4660 -0.1988 -2.1204 -1.0096 -0.5374 2.5465 0.1293 0.8494 -0.3567 0.8652 -0.8751 -0.9884 -0.7313 -0.9959 1.2259 0.5872 -0.3247 -0.0508 0.2673

>  <OB_ATOM_TYPES> (1flrB1)
O.co2 O.co2 O.2 O.2 C.3 C.3 C.ar C.ar C.ar C.ar C.2 C.2 C.2 C.2 O.2 C.2 C.2 C.2 C.2 C.2 C.ar C.2 C.2 C.ar C.2

>  <ENSEMBLE_RMSD> (1flrB1)
0.000 0.591 1.935

$$$$
