
 OpenBabel03071213D

 48 49  0  0  0  0  0  0  0  0999 V2000
   -3.5390   19.4440   19.9810 C   0  0  0  0  0
   -8.8110   14.3880   22.2450 C   0  0  0  0  0
  -10.4520   15.7510   23.5360 C   0  0  0  0  0
   -5.6010   18.7340   19.7330 C   0  0  0  0  0
   -4.3190   16.6550   18.8580 C   0  0  0  0  0
  -11.3990   12.6720   34.5400 C   0  0  0  0  0
   -9.0600   16.4730   32.8210 C   0  0  0  0  0
  -13.6420   13.6160   34.9830 N   0  0  0  0  0
  -11.2920   18.4600   28.2800 O   0  0  0  0  0
  -13.2750   14.4360   32.4770 O   0  0  0  0  0
   -9.3330   14.3720   30.6820 O   0  0  0  0  0
   -7.1550   16.0070   26.0380 O   0  0  0  0  0
   -7.5590   18.3710   22.1260 O   0  0  0  0  0
   -4.1100   18.1740   22.9550 O   0  0  0  0  0
   -8.9690   17.7830   28.0620 C   0  0  0  0  0
  -12.3720   15.9770   28.1020 C   0  0  0  0  0
   -6.5570   18.0280   27.7500 C   0  0  0  0  0
  -11.1350   15.2080   32.9240 N   0  0  0  0  0
  -10.5900   16.0090   29.7450 N   0  0  0  0  0
   -8.2070   17.3680   24.6220 N   0  0  0  0  0
   -6.0500   16.6410   22.1220 N   0  0  0  0  0
   -3.0530   18.5280   20.9390 O   0  0  0  0  0
  -14.0220   12.2730   29.5870 C   0  0  0  0  0
   -3.2590   18.4530   25.1030 C   0  0  0  0  0
  -12.8240   12.2320   28.8470 C   0  0  0  0  0
  -14.6620   13.4730   29.8700 C   0  0  0  0  0
   -4.2260   19.4600   25.1770 C   0  0  0  0  0
   -3.3940   17.2830   25.8920 C   0  0  0  0  0
  -12.2870   13.4330   28.3470 C   0  0  0  0  0
  -14.1280   14.6950   29.3820 C   0  0  0  0  0
   -5.3220   19.3400   26.0520 C   0  0  0  0  0
   -4.4870   17.1600   26.7730 C   0  0  0  0  0
   -9.1200   15.7860   22.8240 C   0  0  0  0  0
   -5.3750   17.2340   19.8230 C   0  0  0  0  0
  -12.2960   13.8890   34.5570 C   0  0  0  0  0
  -10.3340   16.0110   32.1250 C   0  0  0  0  0
  -10.4180   17.4730   27.7490 C   0  0  0  0  0
  -10.8310   16.1070   28.3570 C   0  0  0  0  0
   -7.9460   18.0530   26.9910 C   0  0  0  0  0
   -7.9530   16.4320   23.5160 C   0  0  0  0  0
   -4.9650   16.8370   21.2520 C   0  0  0  0  0
  -12.2520   14.5870   33.1620 C   0  0  0  0  0
  -10.0430   15.3530   30.7410 C   0  0  0  0  0
   -7.7610   17.0710   25.8550 C   0  0  0  0  0
   -7.1290   17.2710   22.4950 C   0  0  0  0  0
   -3.9780   17.8990   21.7610 C   0  0  0  0  0
  -12.9550   14.6590   28.6170 C   0  0  0  0  0
   -5.4470   18.1850   26.8670 C   0  0  0  0  0
  1 22  1  0  0  0
  2 33  1  0  0  0
  3 33  1  0  0  0
  4 34  1  0  0  0
  5 34  1  0  0  0
  6 35  1  0  0  0
  7 36  1  0  0  0
  8 35  1  0  0  0
  9 37  1  0  0  0
 10 42  2  0  0  0
 11 43  2  0  0  0
 12 44  2  0  0  0
 13 45  2  0  0  0
 14 46  2  0  0  0
 15 37  1  0  0  0
 15 39  1  0  0  0
 16 38  1  0  0  0
 16 47  1  0  0  0
 17 39  1  0  0  0
 17 48  1  0  0  0
 18 36  1  0  0  0
 18 42  1  0  0  0
 19 38  1  0  0  0
 19 43  1  0  0  0
 20 40  1  0  0  0
 20 44  1  0  0  0
 21 41  1  0  0  0
 21 45  1  0  0  0
 22 46  1  0  0  0
 23 25  2  0  0  0
 23 26  1  0  0  0
 24 27  2  0  0  0
 24 28  1  0  0  0
 25 29  1  0  0  0
 26 30  2  0  0  0
 27 31  1  0  0  0
 28 32  2  0  0  0
 29 47  2  0  0  0
 30 47  1  0  0  0
 31 48  2  0  0  0
 32 48  1  0  0  0
 33 40  1  0  0  0
 34 41  1  0  0  0
 35 42  1  0  0  0
 36 43  1  0  0  0
 37 38  1  0  0  0
 39 44  1  0  0  0
 40 45  1  0  0  0
 41 46  1  0  0  0
M  END
>  <MOLID> (1hefA1)
1hefA1

>  <SMILES_CANONICAL> (1hefA1)
COC(=O)[C@H](C(C)C)NC(=O)[C@H](C(C)C)NC(=O)[C@@H](C[C@@H]([C@@H](NC(=O)[C@@H](NC(=O)[C@@H](N)C)C)Cc1ccccc1)O)Cc1ccccc1	

>  <FINGERPRINT> (1hefA1)
0000000000000101000000000000000000000001000000000111001000000000000000000001000000000001000000100000010000000001000001110000000000000000000110000000000010000000000000000000000000000000000000000000000000000000000000000000000000100000000000000000000000001100000000000000000000001000100000000000000000001000000010001100000000001000001100000000000000000000010000000000000110110000000000000000011000000000100000000001101000000000001000000010000000000001100000000001100000010000000000000000000000001100000000000000100000010000000000100000000000000000000000100000000000000000000000000000000001000000001000000000100000000000000000000000001000000001000000000000000000000001000000000011100000100100000011100011000000010011000000000000000001000011100000110101000000000000000110000000000000000000000010000000000010000000000000000000000000000000000000001000000000000000000000000001000000000000000000000000000100001100000000000000001000000010000000000000011000000000000010110010000000000010010000000000000000000000000000000010111000000000

>  <MACCS166> (1hefA1)
000000000000000000000000000000000000000000000000010001000000000000000000010100100001000001111010001000010001011000001000001011001011000100111100110010110111111110111000

>  <OB_MW> (1hefA1)
667.394

>  <OB_logP> (1hefA1)
3.8942

>  <OB_PSA> (1hefA1)
188.95

>  <OB_MR> (1hefA1)
183.617

>  <OB_ATOMIC_CHARGES> (1hefA1)
0.2556572397 0.0022754244 0.0022754244 0.0023449067 0.0023449067 0.0304184895 0.033371564 -0.1230656506 -0.22128142 -0.2717699772 -0.2714870611 -0.2733324434 -0.2714750211 -0.248194135 0.0441546756 0.0505962034 0.0355507549 -0.1965678618 -0.2027968244 -0.1977787705 -0.1943134454 -0.4432253419 -2.00181e-05 -2.00226e-05 -0.000321828 -0.000321828 -0.0003223946 -0.0003223946 -0.004209992 -0.004209992 -0.0042543083 -0.0042543083 0.0289616917 0.0309261952 0.1693622398 0.1728179753 0.1725842926 0.1299146977 0.0851260207 0.1726475046 0.1933998337 0.2591904548 0.26124888 0.2416931294 0.2616636942 0.3370989738 -0.0203772764 -0.0217028577

>  <MCT_HBD> (1hefA1)
6

>  <MCT_HBA> (1hefA1)
12

>  <ENSEMBLE_TOTAL> (1hefA1)
50

>  <ENSEMBLE_COORDS> (1hefA1)
5.3576 1.8426 -7.2891 -0.7348 2.6018 -5.3543 1.3663 3.8751 -4.9356 3.1088 -3.1284 -4.7319 2.1522 -2.0400 -6.7521 -1.7315 -2.0750 8.8377 -1.2126 -3.5618 4.5773 0.5555 -1.3820 8.9796 -2.6252 1.4155 0.1643 0.6763 -2.3959 6.4847 -0.2802 -0.6369 3.3821 -0.1492 -0.2272 -2.1467 3.4101 1.5925 -3.4073 5.6954 -0.7135 -6.6126 -0.5674 0.2512 0.4984 -4.2116 -0.3492 1.5462 1.5335 1.5331 0.1626 -1.3633 -1.4586 5.9063 -2.2559 -1.4774 2.4827 0.6198 1.9001 -2.6314 2.5749 0.0893 -4.9836 4.4142 1.1884 -6.4421 -6.7300 -3.6952 0.6142 2.0434 4.4085 3.3055 -6.5623 -3.3323 1.8983 -6.0362 -2.9764 -0.4399 2.2536 3.1044 3.5585 1.6803 4.8365 1.9657 -5.6943 -2.2159 2.2271 -5.2233 -1.9485 -0.1343 2.0763 2.1245 2.5019 1.5257 3.9287 0.9841 0.7394 2.5136 -5.0699 3.3283 -2.0937 -5.8051 -0.6470 -1.2640 8.1695 -1.6874 -2.1315 4.6720 -1.9046 0.6334 1.1128 -2.7209 -0.6163 1.4119 0.1044 1.3465 -0.3242 1.0533 1.5438 -3.9577 3.7277 -0.7471 -5.2217 -0.3556 -1.8040 6.7877 -1.3069 -1.3005 3.4644 0.1593 0.9054 -1.7789 2.4858 1.0833 -4.0290 4.7214 -0.1093 -6.1751 -5.0469 -1.5488 1.2535 1.6836 2.5113 1.2739
3.5165 0.7696 -8.3707 4.3205 -2.4593 -3.0822 2.0721 -3.3626 -2.5268 -1.5782 1.1690 -5.2201 0.4095 2.6114 -4.8167 -3.9366 -3.2225 7.5493 -0.7165 -2.9402 4.4495 -4.1984 -0.8134 7.6413 -0.6717 1.8835 -0.1329 -0.9745 -1.5298 7.0973 -0.9678 0.3462 4.0874 2.8373 1.7186 -1.9631 0.0190 -0.7594 -3.4448 0.8924 1.1883 -8.3392 0.8685 0.2235 0.6476 -2.9576 0.5944 1.0445 3.2691 0.8632 1.0371 -2.5836 -1.6224 5.4292 -1.3512 -0.9210 2.1744 2.2408 -0.5014 -1.6528 1.5480 0.0392 -5.0088 2.7500 0.4331 -7.2152 -5.8727 -1.9372 -0.8572 3.9257 3.8472 4.0457 -5.6937 -0.6843 -1.3132 -5.0399 -2.4369 0.2199 3.6671 2.5778 4.4071 4.0038 4.1986 2.6383 -4.6781 0.1733 -0.7197 -4.1034 -1.6433 0.7671 3.4327 1.5703 3.3901 3.7941 3.2619 1.6943 2.8356 -2.3064 -3.2827 -0.2298 1.6008 -5.7379 -3.2402 -1.8993 7.7419 -1.8138 -1.9246 4.2507 -0.3977 1.0107 0.9543 -1.5490 0.0331 1.1071 2.0328 1.0732 0.1884 2.3967 -0.8846 -3.0307 0.6480 0.4082 -6.0737 -2.1400 -1.6772 6.7342 -1.3396 -0.6815 3.5334 2.4071 0.8118 -1.2518 1.1645 -0.5507 -3.8244 1.4279 0.7348 -7.3329 -3.9011 -0.2844 0.2813 3.4557 1.9007 2.0863
1.9447 -2.5713 -7.6336 -0.8042 2.8542 -5.4548 1.2476 4.1767 -5.0005 5.6513 -0.0268 -3.6456 3.7635 -1.5199 -2.9972 -1.4860 -2.5681 8.6007 -0.7838 -3.5409 4.2109 0.6818 -1.5852 8.8438 -2.6302 1.5057 0.0657 0.9484 -2.2989 6.2592 -0.2535 -0.3896 3.3120 -0.0847 -0.0077 -2.2526 3.3680 2.0049 -3.6356 4.4191 -2.2374 -6.6903 -0.5217 0.4365 0.3927 -4.1443 -0.3296 1.4160 1.5243 1.7990 0.0699 -1.2124 -1.6296 5.7599 -2.1713 -1.3528 2.4010 0.5886 2.1509 -2.7377 2.5371 0.2033 -4.8544 2.2281 -1.5361 -6.6923 -6.5156 -3.7782 0.4697 1.9696 4.8698 3.0344 -6.4069 -3.3831 1.7509 -5.8065 -3.0571 -0.5726 2.2012 3.5876 3.3679 1.6066 5.2083 1.6692 -5.5847 -2.2344 2.0886 -5.0369 -1.9990 -0.2590 2.0444 2.5414 2.3725 1.4733 4.2397 0.7446 0.6714 2.7973 -5.1713 4.5968 -0.9869 -4.1354 -0.5245 -1.5519 8.0337 -1.4100 -2.1916 4.4506 -1.8753 0.7508 1.0094 -2.6394 -0.5346 1.2991 0.1033 1.5666 -0.4227 1.0030 1.8138 -4.0780 3.7831 -0.3975 -5.2747 -0.1585 -1.9011 6.6102 -1.1759 -1.1945 3.3370 0.1738 1.1378 -1.8828 2.4429 1.3812 -4.1413 3.5265 -1.5000 -6.2844 -4.9228 -1.5673 1.1250 1.6508 2.8453 1.1217
2.6071 1.7425 -8.1055 4.2330 -2.1226 -4.4905 4.3214 -2.5853 -2.0884 -1.9515 -0.3145 -4.7787 -0.6772 1.7605 -4.2490 -3.8195 -4.1293 6.7871 -0.2094 -2.1977 4.7797 -4.0098 -2.4037 8.4361 -0.4915 2.0461 -0.2221 -1.8223 -1.4051 7.1915 -1.8277 0.5977 4.0452 2.7546 1.8560 -2.1778 0.4148 -1.5304 -3.2641 0.0413 1.0521 -7.9305 1.0550 0.3996 0.5638 -2.7525 0.8425 0.9629 3.4668 1.0514 0.8806 -2.6769 -1.9326 5.1001 -1.1788 -0.6567 2.1928 2.5580 -0.4020 -1.6819 1.3812 -0.0843 -4.8110 2.1347 1.0009 -6.9808 -5.7465 -1.7489 -0.7083 4.1923 4.0802 3.8255 -5.8508 -1.3578 0.5745 -4.6220 -1.3017 -1.5108 3.9680 2.8113 4.2107 4.2143 4.4163 2.4123 -4.8324 -0.5006 1.1575 -3.6790 -0.5082 -0.9703 3.7120 1.7887 3.2145 3.9853 3.4653 1.4873 3.4122 -2.1811 -3.2230 -0.9328 0.6814 -5.2724 -3.9040 -2.6376 7.0055 -1.5490 -1.8048 4.2124 -0.2045 1.1938 0.8794 -1.3671 0.2327 1.0688 2.2072 1.2451 0.0638 2.7251 -0.8454 -3.0408 0.3206 -0.0058 -5.7866 -2.6624 -1.9495 6.4820 -1.5378 -0.4665 3.5116 2.5304 0.9477 -1.3800 1.3661 -0.8873 -3.6916 0.7976 0.7469 -7.0140 -3.7743 -0.1040 0.4250 3.6805 2.1047 1.9075
3.4857 -2.9356 -6.0584 3.1724 2.1153 -4.6320 4.1730 2.1774 -2.3944 -1.9457 -0.3197 -5.9250 0.0459 0.6277 -7.0550 -1.2276 -4.4189 6.7491 -2.4728 0.4707 5.3260 -2.7249 -3.0107 8.0488 -1.5353 1.9327 -0.4059 -0.3768 -1.0623 6.7553 -0.5115 -1.1362 3.1415 1.1477 3.3699 -1.2410 1.6206 -1.3208 -2.6253 0.9344 -3.0356 -6.7484 0.1578 0.9139 0.9507 -3.4853 0.2271 0.2398 2.4583 1.7248 1.4102 -2.0047 -1.9814 5.3891 -2.4832 -0.1610 2.3708 1.7894 1.1394 -1.3570 0.9440 -0.1657 -4.5280 2.5639 -1.9931 -5.5120 -5.2055 -3.3674 -1.3109 4.8047 4.7826 3.2813 -4.2306 -2.7578 -2.0092 -5.6362 -2.8228 -0.0356 4.2363 5.0517 2.0921 4.5894 3.4925 3.9104 -3.6197 -1.5451 -1.4958 -5.0632 -1.7060 0.4470 3.4178 4.0473 1.4347 3.8055 2.5756 3.3163 3.2929 1.3715 -3.3211 -0.5464 -0.6046 -6.4078 -1.4053 -3.0962 7.4518 -2.4278 -0.8529 4.6016 -1.3021 1.3108 0.8494 -2.1662 0.0618 0.9782 1.1271 2.0652 0.7652 1.9002 1.0868 -2.7873 0.3113 -1.2069 -5.3036 -1.2145 -1.9299 6.5168 -1.6631 -0.7531 3.3077 1.3525 2.2805 -0.7118 1.4595 -0.2815 -3.2544 1.2888 -2.1772 -5.9463 -4.0057 -1.0507 -0.3060 3.1749 2.8680 2.0383
-1.4975 -0.8416 -7.7083 -1.3818 3.7172 -3.5044 0.8676 4.7547 -3.7779 4.1805 -0.1310 -6.0287 2.4911 -1.5358 -4.8467 -5.9936 -2.8360 7.2304 -2.2678 -0.2621 6.6828 -7.4760 -1.0574 6.6266 -0.4537 1.4559 1.8963 -5.1825 0.3661 6.4101 -2.8857 0.3363 3.4874 0.2552 0.1596 -1.4937 2.8797 1.9271 -4.1866 1.0727 -0.7488 -8.4360 1.3482 0.1016 1.0061 -1.1873 -1.4128 1.4141 3.1769 1.1211 -0.2634 -4.0758 -1.4104 5.4025 -0.9266 -0.8545 3.8502 1.0309 2.2839 -1.9913 1.0859 0.8869 -5.2426 -0.5177 -0.2709 -6.8421 -1.5416 -5.6715 1.0666 5.8128 3.2291 2.3790 -2.6206 -4.9309 1.3766 -0.2540 -5.0270 0.8707 5.8623 1.8857 2.3324 4.8983 3.9512 1.5123 -2.4930 -3.4936 1.5282 -0.1354 -3.6932 1.0112 4.9738 1.1585 1.4425 4.0870 3.2789 0.6764 0.0405 3.5084 -3.9468 2.7944 -0.7236 -6.0810 -6.2911 -1.7809 6.1929 -2.6746 -1.0505 5.4629 0.4396 0.3954 2.1828 -0.3219 -0.8727 2.5357 1.7057 1.2652 0.0977 0.6260 2.2421 -3.3741 1.7519 0.3326 -6.3992 -5.1353 -0.8101 6.0624 -2.2031 -0.4251 4.1648 0.9091 1.1564 -1.1922 1.6843 1.6824 -4.2874 0.7454 -0.2845 -7.3488 -1.2972 -2.8960 1.3781 4.0944 1.8246 0.6716
-1.4179 -2.6602 -5.9991 4.5463 -0.6817 -3.6879 3.0222 -2.3794 -2.7175 -0.5799 3.2741 -5.3661 0.7303 1.8509 -6.9063 -4.6015 -2.1162 7.2817 -2.3257 1.2576 5.4454 -4.2472 -3.6282 5.4181 -0.2950 1.8179 0.0326 -4.3661 -0.6199 4.1244 0.1408 -0.8840 3.9407 2.4685 2.4918 -1.3894 0.0073 -0.5602 -2.4926 -2.3995 -0.2177 -6.3091 1.3232 0.3879 1.1108 -2.2737 0.1500 0.5830 3.7924 0.7199 1.1538 -2.5624 -1.2151 5.4564 -1.5556 0.3018 2.8988 2.4841 0.1738 -1.4541 0.6554 0.4301 -4.4935 -0.8006 -1.5543 -5.3440 -4.6014 -3.3655 -0.1639 6.8347 3.4964 2.3306 -3.2675 -3.4949 -0.0475 -5.2201 -2.0619 -0.0055 6.2580 2.7154 3.2615 6.3807 3.4371 0.9530 -2.4444 -2.3283 0.2202 -4.4612 -0.9867 0.2706 5.1922 1.8032 2.8850 5.3915 2.5946 0.6054 3.1069 -1.0842 -3.4875 -0.5084 1.9287 -6.0429 -4.6969 -2.2980 5.7874 -1.6728 -0.0930 5.2790 -0.0075 1.1051 1.2229 -1.0995 0.0942 1.5438 2.4674 1.2869 0.6807 2.3207 0.0547 -2.8759 -0.6311 0.8064 -5.0262 -3.8730 -1.2860 5.0323 -0.9279 -0.2774 3.9808 2.4880 1.4007 -0.8255 0.8572 -0.0586 -3.2197 -1.3703 -0.3594 -5.6571 -3.0182 -1.1240 0.4004 4.7574 1.7559 1.6123
1.9881 -2.3656 -7.7817 -0.5012 2.9747 -5.5276 1.5023 4.2605 -4.8000 5.4969 -0.4788 -3.2716 3.3927 -1.7318 -2.8506 -0.5145 -1.3855 8.4513 -2.4580 -3.0781 4.7942 1.7060 -2.0970 7.8910 -2.6903 1.5434 -0.3105 0.3404 -3.2881 5.8665 -0.5599 -1.8541 2.5342 -0.1387 0.1286 -2.2483 3.5000 1.8893 -3.4704 4.3030 -2.4709 -6.4972 -0.5940 0.5859 0.3772 -4.2620 -0.1840 1.0614 1.5547 1.7891 0.1339 -0.7802 -1.3130 5.4085 -2.4656 -0.5207 2.6374 0.7402 2.2219 -2.6864 2.5894 0.1694 -4.7585 2.2251 -1.5087 -6.6644 -6.6145 -3.7698 0.9909 2.1336 4.7834 3.1490 -6.2126 -3.2316 -0.1747 -6.2546 -3.1318 2.2441 2.2311 3.4836 3.4807 1.8390 5.1603 1.7777 -5.3971 -2.0275 -0.1783 -5.5010 -2.0180 2.2405 2.0193 2.4600 2.4723 1.6472 4.2122 0.8423 0.9415 2.8968 -5.1022 4.3903 -1.2905 -3.8946 0.5412 -1.3984 7.3727 -1.8755 -1.7094 4.5634 -2.0164 0.9325 0.7756 -2.7529 -0.3274 1.2309 0.1379 1.6686 -0.4049 1.1511 1.8679 -4.0209 3.7793 -0.5800 -5.0907 0.0256 -2.1404 6.1631 -1.5410 -1.4210 3.1258 0.2228 1.2375 -1.8579 2.5598 1.3427 -4.0335 3.4817 -1.6259 -6.1540 -5.0153 -1.4662 0.9844 1.7050 2.8057 1.2100
1.7447 -4.0144 -6.0298 4.5842 0.1236 -4.5675 5.0498 0.1319 -2.1659 -1.0012 1.3418 -6.3713 1.1169 0.7614 -7.5176 -2.8447 -4.5869 6.3794 -0.9763 -0.1511 5.9905 -3.2116 -4.4591 3.9877 -1.2240 2.3052 0.2050 -3.5610 -1.4020 5.2816 0.5300 -1.2626 2.9170 1.2744 2.8045 -2.0428 0.9360 -1.1635 -2.8259 -0.3910 -2.6539 -6.8399 0.7127 1.0479 0.7808 -2.9696 0.7689 1.5693 2.9653 2.1295 0.8972 -1.4768 -2.3927 5.0247 -1.2440 0.2028 3.1619 2.3879 0.8097 -1.6400 1.3792 -0.1734 -4.8763 1.4832 -2.7105 -5.5127 -5.6410 -2.3662 0.4280 3.6217 5.2721 3.7256 -5.3688 -1.3877 -0.4541 -4.9585 -2.3961 1.7078 3.8444 5.5146 2.4213 3.1041 3.9821 4.1453 -4.4068 -0.3512 -0.1170 -4.0531 -1.4490 2.0082 3.5967 4.4756 1.4369 2.8573 3.0252 3.2329 4.0118 -0.2153 -3.2089 -0.0941 0.2146 -6.7962 -3.4410 -3.7820 5.2524 -0.6158 -1.2365 5.0082 -0.6052 1.6080 1.2777 -1.4932 0.4634 1.7554 1.6130 2.1280 0.2229 2.6862 0.5064 -3.0189 0.2426 -0.6736 -5.6131 -2.8465 -2.3977 5.1856 -0.3827 -0.7848 3.5881 1.7442 1.9724 -1.2702 1.5595 -0.3691 -3.5223 0.4090 -2.1060 -6.0884 -3.7598 -0.3850 1.0630 3.1120 3.2812 1.8245
4.9141 0.3032 -7.3901 -0.8277 2.2031 -5.1633 1.0739 3.6541 -4.5189 3.1130 -3.0909 -2.7276 1.9997 -3.1451 -4.9374 2.5693 -2.5240 5.4392 -2.3492 -3.2153 4.6199 2.7418 -2.4474 3.0568 -2.7819 1.7428 0.4222 0.1697 -3.2449 3.1648 -2.6221 0.2980 4.7629 -0.3035 -0.2444 -1.6280 3.2618 1.3710 -3.1234 5.4334 -1.7512 -5.7876 -0.7327 0.5871 0.8971 -4.2983 0.1530 2.2232 1.3820 1.7467 0.4891 -0.2770 -1.8913 4.9979 -2.1821 -0.9494 2.8582 0.5578 1.7752 -2.3481 2.4035 -0.4082 -4.3484 4.1682 0.1243 -6.1873 -7.0976 -3.0156 1.5230 2.1049 5.3771 2.6283 -6.0041 -2.9413 0.7435 -7.3132 -2.0303 2.5669 2.1762 5.3877 1.2848 1.7195 4.1635 3.3262 -5.0484 -1.8693 0.9418 -6.4149 -1.0493 2.7661 1.9025 4.1750 0.5350 1.4480 3.0442 2.6316 0.6335 2.2370 -4.7903 3.2384 -2.7176 -4.1842 1.9558 -1.9586 4.1792 -1.7208 -1.9002 5.0147 -2.0639 1.0617 1.4422 -2.8613 -0.1593 1.8579 -0.0281 1.5499 -0.0324 0.9039 1.2797 -3.6536 3.5772 -1.2458 -4.3280 0.5358 -2.4573 4.0320 -2.2293 -0.7292 4.2159 0.0522 0.9091 -1.3989 2.3262 0.7825 -3.6542 4.4829 -1.0222 -5.5246 -5.2314 -0.9680 1.9256 1.5425 3.0506 1.1801
0.1153 2.6052 -7.9274 4.4297 1.9560 -3.4918 4.5436 -0.4571 -2.9593 -1.2707 -2.2893 -4.7618 -1.9633 0.0323 -4.1627 -4.9344 -2.9905 7.1958 -0.9568 -2.2984 5.1109 -4.8923 -0.8927 8.3528 -0.5593 1.5739 -0.3296 -2.4179 -0.7892 7.2297 -1.8236 0.6753 3.8623 2.5318 2.9191 -1.0810 1.2389 -1.3820 -3.2639 -0.9711 0.1678 -7.8644 1.0711 0.4586 1.0230 -2.6649 -0.0858 0.4713 3.4874 0.7884 1.2204 -3.2811 -1.3937 5.1603 -1.2027 -0.9304 2.3054 2.2708 0.6536 -1.5411 0.7797 0.3573 -4.7330 0.3864 1.7184 -6.8428 -4.4876 -3.6703 -1.0361 6.3602 3.3425 3.0868 -3.7805 -2.8985 -1.8814 -4.5976 -3.2951 0.3616 6.4608 3.1121 1.7652 5.2802 2.7438 3.8504 -3.1194 -1.6972 -1.3946 -3.9827 -2.1876 0.8119 5.4835 2.2671 1.1013 4.3689 1.9707 3.2349 3.7031 0.6385 -3.5674 -1.3406 -0.8524 -5.2137 -4.7279 -1.5033 7.0435 -2.1124 -1.6828 4.3613 -0.3558 0.9719 0.9431 -1.2673 -0.2416 1.0358 2.1941 1.4359 0.7561 2.3151 0.7673 -2.9790 0.0021 -0.3578 -5.7239 -3.3355 -1.2082 6.5306 -1.7062 -0.4945 3.5147 2.3397 1.7612 -0.7143 1.3898 -0.2257 -3.6410 -0.2625 0.5252 -6.9290 -3.2008 -1.3597 -0.0938 4.4626 1.7417 1.8038
-1.4408 -1.1252 -6.9659 3.7731 -2.2400 -3.1532 1.3508 -2.8055 -3.1055 1.9993 3.7479 -6.0454 2.8702 1.6630 -7.0650 -2.4544 0.2887 8.4108 -3.6368 -1.7724 4.5495 -0.7077 -1.2712 8.9223 -0.5115 1.5846 -0.5122 -1.6884 -2.4795 6.7009 -0.7245 -1.6843 3.1032 3.0669 1.7811 -1.3795 -0.2107 0.2132 -3.2907 -0.8650 1.3846 -7.6029 0.7776 0.0820 0.8448 -2.8464 0.4110 -0.0353 3.1965 0.2758 1.3677 -1.7399 -0.4646 5.5608 -2.1377 -0.0566 2.2141 2.0008 -0.2725 -1.5484 1.4143 0.7984 -4.8551 -0.3700 -0.4467 -6.3111 -5.4068 -2.6031 -1.6752 4.3015 2.3089 4.9692 -5.9393 -1.5996 -0.9552 -3.9688 -2.6769 -1.8634 4.9892 2.5624 3.8411 3.1819 1.3850 4.9434 -5.0740 -0.5947 -0.3647 -3.1672 -1.7435 -1.3195 4.6120 1.9107 2.5981 2.8273 0.7878 3.7919 2.3810 -1.7773 -3.4962 1.6268 2.4224 -6.6584 -1.2270 -0.4075 7.8745 -2.5428 -0.7498 4.4040 -0.4947 0.8944 0.7269 -1.6903 -0.0447 0.8404 2.0441 0.8734 0.5848 2.1164 -0.3852 -2.9731 0.6750 1.6389 -5.7651 -1.5989 -1.2562 6.6816 -1.6881 -0.9322 3.1814 2.4308 0.8566 -0.8771 0.9501 0.2534 -3.6786 -0.2713 0.8625 -6.6644 -3.7392 -0.6737 -0.5178 3.5565 1.0759 2.5672
1.3147 -0.9494 -8.2257 5.2718 1.4856 -3.7197 4.4451 -0.8304 -4.1189 -0.6708 4.0775 -5.5562 1.4722 3.9096 -6.7897 -3.2441 -1.2494 8.4976 -0.3516 -0.6497 5.3551 -4.3247 0.8826 8.3675 -1.0040 -0.0943 -1.1946 -2.2955 1.2855 6.6043 -2.1943 0.8546 3.1094 1.7111 2.4147 -1.1841 0.9824 -0.3732 -4.0982 -0.5027 0.9815 -8.1341 0.8785 -0.6411 0.1044 -2.9293 -1.0021 0.5987 3.2301 -0.0122 0.6943 -2.8406 -0.6550 5.4651 -1.1770 -1.0980 2.3562 2.7059 0.5078 -2.0598 1.4307 1.6530 -5.1573 1.2686 -0.0624 -7.1103 -5.2486 -4.6177 0.8299 4.0697 0.6709 4.8314 -5.7933 -3.4472 1.2070 -3.8854 -4.6513 0.3312 3.8382 -0.5821 4.4008 4.0194 1.7816 3.8971 -5.0079 -2.2266 1.1395 -3.1643 -3.5179 0.2560 3.5293 -0.8216 3.0037 3.7350 1.5606 2.6010 4.1010 0.6358 -4.1366 0.1487 3.2365 -6.5010 -3.8988 -0.2564 7.5681 -1.6667 -0.9299 4.6666 -0.5612 -0.1557 0.1576 -1.4495 -1.1255 0.9317 1.8817 0.4907 0.2219 2.8366 1.0168 -3.3988 0.2698 1.8045 -6.0015 -2.9069 0.2233 6.5319 -1.7398 -0.2668 3.3074 2.0714 1.2441 -1.0743 1.6247 0.6630 -4.2182 0.2962 0.8831 -7.2084 -3.7316 -2.2560 0.7095 3.4558 0.2089 2.1427
2.0935 1.7748 -8.5344 0.0620 -2.4024 -4.3262 -1.7334 -1.2472 -3.0539 0.1926 4.8466 -3.7632 2.4827 3.9097 -3.9126 -2.4346 3.4535 6.0712 -4.5235 -1.0356 4.0435 -3.3687 2.0316 7.8081 0.1415 0.7235 1.0256 -5.3428 1.9955 5.0742 -1.4214 -1.0804 4.6117 3.1226 0.0468 -2.3455 -0.5307 1.9494 -2.8777 1.0291 3.9838 -7.5464 1.4085 -1.2783 0.5834 -1.2915 -1.9938 0.4825 3.8021 -0.9780 0.1091 -3.3945 0.7527 5.2457 -1.8369 -0.5772 2.3843 0.8821 -0.3531 -1.9863 0.8805 1.7450 -4.7210 1.5625 1.7761 -7.2092 -3.4819 -5.6609 0.5026 5.8354 -0.2825 3.8026 -4.1467 -4.4919 0.5091 -2.0310 -5.6706 0.5722 5.8642 0.6739 2.8569 5.0821 -1.5032 3.5786 -3.4114 -3.2427 0.5596 -1.3490 -4.5118 0.6355 5.1533 0.4796 1.6054 4.4088 -1.6762 2.4277 -0.5229 -1.0696 -3.9335 1.2084 4.1984 -4.6699 -3.6676 2.7571 6.5871 -3.4715 0.0491 3.9853 0.4729 -0.5588 1.5397 -0.7923 -1.3817 1.7806 2.4226 -0.3719 -0.0828 0.5387 -0.1554 -3.3723 0.6094 2.9989 -5.3843 -4.2293 1.8066 5.5616 -2.1316 -0.6026 3.7331 2.1970 -0.2259 -1.5797 0.2015 1.2916 -3.6080 1.0953 2.9946 -6.8233 -2.0688 -3.2476 0.6447 4.4326 -0.6392 1.4088
1.7679 1.0000 -8.5319 5.5465 0.3752 -3.3653 4.6905 -1.8059 -2.5318 -1.2833 -1.9876 -4.3150 -1.1320 0.4971 -4.4241 -2.6374 -4.9396 6.5624 0.0103 -2.4150 4.3544 -3.4418 -3.3669 8.1746 -0.8953 2.4412 0.0339 -1.7597 -1.6884 6.8821 -1.8615 0.3297 4.1090 1.8075 2.5245 -2.2261 1.3737 -1.5924 -2.8777 -0.1335 -0.7655 -7.9208 0.8279 0.8384 0.4655 -2.9723 0.8955 1.1529 3.1501 1.7328 0.8845 -2.4430 -2.4605 4.8114 -1.2104 -0.6084 2.0786 2.8826 0.5297 -1.7077 1.5477 -0.2918 -4.7977 1.6902 0.4476 -7.2181 -5.8739 -1.6836 -0.7084 3.6195 4.6135 4.0162 -6.1766 -1.0616 0.4451 -4.5789 -1.4656 -1.3273 4.0771 4.9201 2.7886 2.9777 3.3332 4.2526 -5.1959 -0.2007 1.0854 -3.6777 -0.6573 -0.7403 3.9174 3.9737 1.6952 2.8238 2.4619 3.2412 4.3890 -0.5874 -3.3650 -0.8539 -0.8015 -5.1417 -3.2720 -3.5818 6.7461 -1.3857 -2.0435 3.9288 -0.4653 1.4646 0.9730 -1.5395 0.3945 1.0926 1.8829 1.8499 0.0621 3.0812 0.1075 -3.0691 0.5756 -0.9539 -5.6314 -2.3809 -2.4911 6.1917 -1.5208 -0.6264 3.4233 2.1872 1.6891 -1.4078 1.9102 -0.7111 -3.5378 0.6527 -0.4171 -7.0460 -3.9798 -0.0204 0.5346 3.2816 2.8052 1.9055
-1.6247 -2.7595 -5.4536 4.5645 -1.5802 -3.3498 2.5461 -2.7982 -2.5547 0.4777 2.8079 -6.4771 1.5852 0.7790 -7.3698 -1.4068 -3.8603 7.1113 -1.7615 0.8454 5.4249 -3.7980 -3.8546 6.9978 -0.1838 1.9279 -0.7627 -3.3879 -1.2082 6.6070 -3.1321 -0.7645 2.9006 3.2228 2.2757 -1.8374 0.0717 -0.3799 -2.6579 -1.9445 -0.4173 -6.6678 1.2751 0.7212 0.7158 -2.4858 0.9698 0.2516 3.7041 1.1615 1.1321 -1.6438 -1.6268 5.1258 -1.3738 0.6687 2.3972 2.6597 0.0435 -1.5465 1.0343 0.1631 -4.7075 -0.6413 -1.7360 -5.3142 -5.1100 -2.2827 -0.7276 4.7906 3.7911 4.3360 -5.6155 -1.1554 -0.1961 -3.6893 -2.3748 -1.0130 4.2947 2.5726 4.6162 4.9433 4.2107 2.9539 -4.7340 -0.0449 0.1179 -2.8747 -1.3423 -0.7302 3.9014 1.6849 3.5371 4.5794 3.3877 1.9533 3.0582 -1.6195 -3.3433 0.3296 1.3292 -6.7301 -2.5991 -3.4739 6.2681 -1.4125 -0.3272 4.5402 -0.0396 1.4617 0.5688 -1.2025 0.5528 0.9612 2.4822 1.5560 0.3244 2.4802 -0.2859 -2.9302 -0.1102 0.5929 -5.4725 -2.6129 -1.9779 6.0484 -2.0775 -0.2123 3.1929 2.8271 1.3506 -1.1321 1.0445 -0.1559 -3.3670 -1.0067 -0.5593 -5.8898 -3.4100 -0.1411 -0.1085 4.0060 2.0849 2.2567
4.8115 -0.1339 -7.6053 3.0373 4.1779 -2.8256 4.6526 2.3029 -2.5809 -1.1048 0.0901 -6.4796 0.1955 2.0283 -7.3171 -1.4608 1.1566 8.1094 -3.1537 -1.9923 5.1265 0.5433 -0.1285 8.3999 -1.9149 0.6321 -1.1132 -0.8853 -1.8837 6.8999 -0.7837 -1.8864 3.0884 0.5980 3.0259 -1.0144 2.9688 -0.3498 -3.7728 2.3693 -0.9525 -8.2118 -0.0067 -0.0947 0.0861 -3.6862 -0.9117 0.1344 2.1778 0.7144 1.0283 -1.3977 -0.2200 5.3661 -2.4904 -0.5782 2.1945 2.0038 1.3305 -1.7386 1.7614 0.9983 -5.2305 3.7125 0.2328 -6.7732 -5.8431 -4.6001 -0.1965 2.4601 1.3895 5.2435 -4.5319 -4.5936 -0.4994 -6.4849 -3.3825 0.2658 2.3809 0.1295 4.7783 2.4109 2.5095 4.3210 -3.7620 -3.3667 -0.3772 -5.7655 -2.2545 0.4051 2.2568 -0.1083 3.3527 2.2955 2.2900 2.9984 3.3773 2.7687 -3.2379 0.2068 0.5371 -7.0720 -0.3484 0.4280 7.3956 -2.4096 -0.8236 4.5300 -1.4713 0.2767 0.1863 -2.3082 -0.8522 0.7822 0.8658 1.1081 0.3838 2.1958 1.8345 -3.0741 1.3861 0.0430 -6.2475 -0.9169 -0.7023 6.5684 -1.7826 -1.1870 3.2102 1.1234 1.9260 -0.8584 2.3409 0.6726 -4.0221 2.5264 -0.2820 -7.1962 -4.3431 -2.2467 0.0924 2.1930 0.9283 2.4970
1.1945 -3.6589 -6.4825 4.6830 -0.0541 -4.5912 5.1128 -0.4375 -2.2071 -0.5437 2.1079 -6.3154 1.5612 1.3290 -7.3642 -3.4739 -3.9393 7.1631 -0.4270 -2.9452 4.1439 -2.6050 -2.4341 8.8124 -1.0995 2.2642 0.0598 -0.7422 -2.0144 6.8923 -0.9631 0.2492 4.0013 1.7537 2.7963 -1.9778 0.9148 -1.1204 -2.9587 -0.5351 -1.8133 -7.2557 0.7158 0.8002 0.5923 -3.0974 0.5307 1.0372 2.9657 1.8260 1.0417 -2.3677 -1.8387 5.2522 -1.3123 -0.8826 2.0016 2.5865 0.6582 -1.6215 1.4932 0.0175 -4.9038 1.2052 -2.3731 -5.8660 -5.6436 -2.2580 -1.0083 3.2750 4.6733 4.2293 -5.7934 -2.0671 0.3146 -4.6158 -1.5313 -1.7328 3.1966 3.3620 4.5181 3.2502 5.1134 2.8456 -4.9317 -1.1312 1.0143 -3.8197 -0.6604 -1.0855 3.0711 2.3897 3.4470 3.1390 4.2125 1.8526 4.0576 -0.4927 -3.2844 0.2262 0.9041 -6.7943 -3.0530 -2.5145 7.4309 -1.6563 -2.0732 4.0149 -0.6562 1.3024 1.0097 -1.6334 0.1380 1.0283 1.6847 1.9082 0.2389 2.8341 0.3631 -3.0084 0.3111 -0.1614 -5.7116 -1.9077 -2.1281 6.5236 -1.2976 -0.7510 3.3759 2.0083 1.8526 -1.2331 1.6163 -0.3267 -3.5746 0.2741 -1.5248 -6.3800 -3.9707 -0.4635 0.3493 3.0148 2.7970 2.1658
0.8113 3.9851 -7.6418 3.8643 3.4177 -2.4071 4.9815 1.2048 -2.5955 0.5800 -1.8424 -6.1896 -1.0005 -0.1731 -5.2529 -2.4849 1.3692 7.9391 -3.7818 -1.7841 4.9626 -0.1496 1.1563 7.3182 -1.2426 0.2195 -1.1007 -1.5443 -1.8351 7.0044 -0.9596 -1.9224 3.3742 1.3911 2.5336 -0.4219 2.5533 -0.7139 -4.0022 0.4854 1.4692 -8.4072 0.3296 -0.6305 0.4251 -3.4106 -0.8414 -0.0258 2.7018 -0.2958 1.0470 -1.9679 -0.1353 5.4881 -2.4642 -0.6149 2.1693 2.2581 0.7228 -1.5825 1.4774 1.1112 -4.9662 1.0316 2.9229 -6.7147 -6.0742 -4.1638 -0.5025 4.8857 1.3421 4.3396 -6.5694 -2.9468 -0.2153 -4.6387 -4.3520 -0.6157 4.1623 0.2227 4.5213 4.8902 2.0014 3.0459 -5.6658 -1.8285 -0.0125 -3.8025 -3.3139 -0.4315 3.3867 -0.3261 3.4238 4.1706 1.4946 2.0289 3.8092 2.0470 -3.0298 0.0677 -0.4283 -6.2896 -1.3265 0.4218 7.7494 -2.7793 -0.7693 4.4848 -1.0562 -0.0364 0.2857 -2.1398 -0.9875 0.8059 1.4107 0.4054 0.6750 2.4510 1.4048 -2.8404 1.2083 0.5757 -6.2824 -1.6335 -0.6417 6.7245 -1.9561 -1.2132 3.3044 1.6570 1.3351 -0.4987 2.1815 0.4537 -3.9784 0.8648 1.6873 -7.2606 -4.3327 -2.0054 -0.0838 3.3694 0.2977 2.2321
1.9381 2.2146 -8.2098 4.9516 -0.8640 -3.4516 3.2791 -2.6690 -3.1143 -2.1940 0.3790 -4.2481 -0.7642 2.3873 -3.9329 -3.0262 0.0912 8.2087 -3.6371 -1.6462 4.4913 -1.0348 -1.0358 8.9137 -0.5541 1.5356 -0.7071 -1.3398 -2.2628 6.5207 -0.7105 -1.5999 3.0279 2.3490 2.1815 -1.5599 0.3176 -1.1048 -3.2021 -0.6017 1.6169 -7.7091 0.7851 0.1099 0.6705 -2.8439 0.3479 -0.1755 3.2280 0.2425 1.1032 -1.7829 -0.2599 5.4621 -2.1321 -0.0071 2.0938 2.4907 -0.1364 -1.6580 1.0850 0.4270 -4.7788 1.5845 1.5373 -7.0044 -5.3117 -2.7729 -1.7578 4.5463 1.7790 4.8683 -5.8754 -1.7536 -1.0851 -3.8693 -2.8249 -1.9195 5.1482 2.2066 3.7435 3.4468 0.8341 4.7894 -5.0392 -0.7134 -0.5150 -3.0944 -1.8593 -1.3926 4.6971 1.7232 2.4503 3.0237 0.3917 3.5921 3.5121 -1.2721 -3.6305 -1.2198 1.3247 -4.9031 -1.6008 -0.2403 7.8359 -2.5371 -0.6385 4.3019 -0.5018 0.9029 0.5624 -1.6833 -0.0476 0.7225 2.0411 0.9337 0.4601 2.5676 -0.2246 -3.0899 -0.0948 0.5757 -5.5952 -1.5770 -1.0605 6.5669 -1.6783 -0.8512 3.0870 2.3198 1.0781 -1.0182 1.1882 -0.3811 -3.6691 0.2483 1.3059 -6.8814 -3.7004 -0.7735 -0.6384 3.6567 0.8730 2.3752
0.0482 -3.9998 -5.6475 4.8522 -0.7622 -3.4709 3.5932 -2.3033 -1.9835 -0.7561 1.9475 -5.6059 0.4618 0.4042 -7.1047 -2.0569 -4.9918 4.8638 -2.4232 0.1055 5.4114 -3.7775 -3.9197 6.1964 -0.4696 2.6479 0.2964 -3.6153 -2.0720 3.5747 0.5419 -0.5955 3.4356 2.1649 2.6327 -1.9487 0.3703 -0.9235 -2.1256 -1.9046 -2.2039 -5.6474 1.1769 1.0159 0.9201 -2.5470 1.1115 0.7975 3.5383 1.8721 1.0435 -1.6788 -2.1867 4.8399 -1.4822 0.3531 2.8235 2.7356 0.4453 -1.4234 0.8457 -0.2980 -4.3160 0.3257 -2.6443 -5.2994 -5.4066 -1.9516 -0.0748 4.8606 5.3993 3.0889 -5.7520 -0.9431 0.7456 -4.0705 -2.0030 -0.6406 4.5603 4.2959 3.7971 4.7044 5.3982 1.6453 -4.7884 0.0966 1.0602 -3.1800 -1.0369 -0.3556 4.0819 3.1055 3.1170 4.2616 4.2951 1.0147 3.4880 -1.2592 -3.0664 -0.6415 0.5168 -6.0761 -3.2313 -4.0450 4.8580 -1.3079 -0.7954 4.9370 -0.1382 1.6805 1.2801 -1.2417 0.6336 1.4210 2.1967 1.9823 0.3522 2.5675 -0.1048 -2.7401 -0.4653 -0.4257 -4.8991 -2.8798 -2.6653 4.3612 -0.6465 -0.3652 3.6477 2.3633 1.7415 -1.1266 1.1303 -0.4876 -2.9815 -0.7770 -1.8475 -5.3224 -3.5459 0.0424 0.5457 3.9145 3.1076 1.7818
4.1829 2.3239 -7.5429 2.0302 3.8524 -1.3620 4.0268 2.6718 -2.2691 -1.6867 1.5123 -6.4064 -0.6064 3.7326 -6.1737 -3.5737 1.0323 7.4575 -0.5579 0.5540 4.2879 -4.8057 2.7573 6.3357 -0.9555 -2.5674 -1.4133 -2.6829 2.5111 4.6539 -2.5061 0.2258 1.7554 0.4782 1.4452 -0.0308 2.6411 0.2718 -4.3305 1.7357 1.9032 -8.4725 0.8685 -1.9129 -0.1078 -2.8357 -2.7106 0.6353 3.0526 -0.8798 0.4261 -3.0202 0.2227 4.5122 -1.1938 -1.6553 2.1523 1.9238 0.6502 -1.6612 1.1508 1.9623 -4.9010 3.0706 2.3039 -6.6494 -4.6872 -5.9151 2.8185 4.8857 0.3172 4.1029 -5.3936 -4.8092 2.5232 -3.3049 -6.0264 2.3872 4.8295 -0.9902 3.7913 4.3103 1.3034 3.2061 -4.7653 -3.7214 1.7944 -2.7290 -5.0247 1.6977 4.1916 -1.4150 2.5579 3.7254 0.9113 2.0606 2.5535 2.9386 -2.4386 -0.4564 2.3273 -6.7108 -4.2403 1.4288 6.1619 -1.7715 -0.3013 4.0013 -0.6380 -1.8177 -0.2431 -1.3709 -2.4333 0.9427 1.5556 -0.6494 0.3592 1.6903 1.7043 -2.6203 0.8111 1.6129 -6.2623 -3.2159 1.4798 5.0535 -1.8998 -0.5233 2.5136 1.2375 0.5802 -0.4642 1.8751 1.1789 -4.0253 1.9081 1.9485 -7.2584 -3.4751 -3.8067 1.4174 3.6377 -0.5042 1.7374
0.8946 4.8088 -7.1981 5.2012 1.2613 -4.2676 4.2143 -0.9562 -4.8065 -1.9956 0.2450 -4.5525 -1.3942 2.3921 -3.4482 -3.8529 -0.2949 7.9286 -0.5244 -0.1188 5.1690 -4.9744 1.7100 7.2504 -0.3652 -0.7537 -1.4301 -2.7488 1.9213 5.7033 -2.1351 0.8611 2.4238 2.1235 2.1135 -1.1713 0.9536 -0.5773 -4.2245 -1.2514 3.2294 -7.1473 1.3861 -0.9992 0.1052 -2.4161 -1.4864 0.2783 3.8147 -0.4641 0.3142 -3.0025 -0.2521 4.9482 -0.8863 -1.0857 2.2032 2.9082 0.2514 -2.3172 0.9626 1.6685 -4.8106 0.9125 3.5912 -6.4561 -4.9584 -4.6551 1.6778 5.0791 -0.5194 4.3933 -3.6361 -4.8904 1.6004 -5.4952 -3.3942 1.2003 5.1238 0.6451 3.7211 4.5912 -1.7205 3.7397 -2.7408 -3.8615 1.0950 -4.6660 -2.4425 0.7361 4.6849 0.7010 2.3379 4.1704 -1.6670 2.4645 3.9384 0.5100 -4.5956 -1.5057 1.6557 -4.7619 -4.3930 0.4748 6.7475 -1.7198 -0.5507 4.3559 -0.0541 -0.5431 -0.0559 -0.9856 -1.4067 0.7930 2.4301 0.0992 0.0671 2.8201 0.8384 -3.6321 -0.2419 1.6847 -5.6028 -3.2804 0.8174 5.7804 -1.6268 -0.1482 2.8989 2.4512 0.9279 -1.1979 1.4827 0.5273 -4.2447 -0.2713 2.9195 -6.4784 -3.2260 -2.6605 0.7232 4.2047 -0.4064 1.7432
-0.0993 -3.4199 -6.4757 4.5789 -1.7465 -2.3155 2.5039 -2.9055 -1.5973 1.0188 2.4976 -5.7914 2.2384 0.8095 -7.1136 -1.3808 -4.0956 6.5782 -3.7798 -1.4886 3.8862 0.1950 -4.6891 4.8831 -0.7155 2.4840 0.0013 -1.4777 -3.1899 3.3890 -1.9444 1.5070 3.9857 2.5899 2.1941 -1.5939 0.0289 -0.7331 -2.7339 -0.8862 -1.0091 -7.2374 0.6764 0.8283 1.0512 -3.1176 1.3628 0.9077 3.0591 1.3242 1.5403 -1.5375 -1.5141 4.9875 -1.7960 -0.1302 2.3540 2.2111 -0.0373 -1.1070 1.4024 -0.2549 -4.5497 0.2215 -2.2799 -5.6802 -6.1809 -1.4067 -0.2489 4.4742 4.6890 3.7853 -6.5216 -0.2624 0.3713 -4.7902 -1.6774 -0.5622 3.9000 3.6644 4.4419 4.5569 4.6657 2.3367 -5.4941 0.6908 0.7540 -3.8469 -0.7737 -0.2491 3.3846 2.5230 3.7019 4.0807 3.6113 1.6525 3.0908 -1.8710 -2.5264 0.9081 1.1598 -6.4847 -0.4276 -3.5507 5.5414 -2.6511 -0.7119 4.5272 -0.6057 1.6318 1.1305 -1.7846 0.6761 1.1534 1.8880 1.6230 0.6250 2.4251 -0.5153 -2.4471 0.3971 0.1010 -5.5203 -1.2054 -2.7686 4.5095 -2.1026 0.3486 3.6090 2.2686 1.3081 -0.8048 1.1308 -0.5062 -3.2203 -0.1409 -1.1067 -6.2683 -4.2029 0.4428 0.4665 3.4596 2.5016 2.3573
2.6390 2.1907 -8.0326 5.2620 -0.6898 -3.0409 3.7739 -2.6305 -2.5834 -1.7907 -0.1642 -4.7436 -0.6783 1.9619 -4.1372 0.2701 0.3336 7.3406 -3.0811 -0.0296 4.3320 -0.0727 -1.8680 8.2050 -1.0104 1.7352 0.2099 -2.1955 -1.6807 6.5249 -2.4118 -2.8532 3.4030 2.1144 2.0619 -1.4847 0.7341 -1.4446 -3.3737 0.1361 1.3602 -7.8999 0.4708 -0.1060 0.5863 -3.3448 0.2410 0.7413 2.7921 0.3404 1.3795 -0.8266 -0.9779 4.7854 -1.8849 -1.5934 1.5688 2.5090 -0.2230 -1.4968 1.4913 0.2748 -4.7525 2.2097 1.4117 -6.9178 -6.0635 -1.5589 -2.0515 3.3916 2.5011 5.0261 -6.3214 -1.6246 -0.7330 -4.8587 -0.8980 -2.5217 3.8914 3.0014 3.8819 2.6262 1.2678 5.0046 -5.4002 -1.0262 0.2163 -4.0069 -0.3392 -1.6419 3.6830 2.2949 2.6304 2.4130 0.6239 3.8432 3.8970 -1.2903 -3.2665 -0.8544 0.9193 -5.2166 0.1205 -1.1227 6.9693 -1.7822 -0.5651 3.7702 -0.8220 0.5701 1.0017 -1.9705 -0.3930 0.7621 1.6538 0.8304 0.5105 2.8116 -0.3049 -2.9023 0.4384 0.3156 -5.7405 -1.1095 -1.2914 6.1049 -2.0789 -1.7726 2.9164 2.1133 0.9694 -0.9210 1.5543 -0.5879 -3.6800 0.8883 1.0898 -6.9694 -4.2780 -0.4206 -0.2136 2.9581 1.1614 2.6068
1.0873 -3.5491 -6.4440 5.3676 0.4005 -2.6133 4.2429 -1.7769 -2.2230 -0.6392 2.1746 -5.8983 1.5343 1.6526 -6.9596 -2.3042 -2.4323 7.8905 -2.0818 -3.3051 3.6211 0.0687 -2.4045 8.2226 -1.2444 2.3432 -0.1368 0.0309 -3.0504 5.5908 -0.1018 -1.1177 2.6940 1.7383 2.7165 -1.8034 1.0515 -1.2828 -2.8617 -0.5931 -1.6079 -7.0627 0.3851 0.7322 0.5215 -3.3916 0.8389 0.3646 2.6128 1.5345 1.3299 -1.5271 -1.4018 5.1407 -2.2257 -0.4196 2.0184 2.5657 0.5868 -1.3957 1.5876 0.0281 -4.7068 1.2107 -2.2777 -5.8109 -6.2736 -1.9444 -1.1372 3.1717 4.3614 4.4962 -6.5619 -1.2421 -0.0265 -4.9909 -1.7718 -1.7948 3.6515 4.6502 3.2729 2.4378 3.1274 4.7136 -5.5924 -0.3014 0.5077 -4.0983 -0.8930 -1.3082 3.4485 3.7201 2.1757 2.2306 2.2760 3.6930 4.1793 -0.4619 -2.9601 0.2282 1.0774 -6.4608 -1.0005 -1.8348 7.4183 -2.0845 -1.8173 3.8755 -0.9785 1.3211 0.8152 -2.0425 0.2296 0.7341 1.4618 1.7858 0.3793 2.8845 0.2936 -2.7652 0.3666 -0.0672 -5.4690 -0.7644 -2.1970 5.9724 -1.3220 -1.1051 2.7940 1.9417 1.7692 -1.0482 1.7226 -0.4149 -3.4084 0.2667 -1.3856 -6.2166 -4.4012 -0.1464 -0.0998 2.7448 2.5891 2.3690
-1.3195 0.4700 -7.5689 4.6926 0.0864 -4.7498 2.8510 -1.5616 -4.7602 0.3123 5.1754 -4.1708 1.4371 4.5502 -6.2936 -3.1015 1.7468 8.0579 -3.8895 1.7179 3.0880 -4.0963 -0.4611 7.8593 -0.1528 1.2534 0.5683 -5.6741 1.3207 5.6776 -1.0962 -0.0188 4.3547 3.0435 1.9212 -1.0951 0.1503 0.4069 -3.6289 -2.0144 2.8255 -6.5651 1.1259 -0.6893 0.0659 -1.6164 -1.5133 0.3585 3.5643 -1.2158 0.1080 -3.3982 1.0090 5.3383 -1.9255 -0.0055 2.1976 2.5924 0.0393 -2.3704 1.0987 2.1621 -4.8148 -0.3947 1.2111 -6.7725 -3.3826 -5.3507 0.9870 5.2685 -1.8266 3.9835 -2.2081 -5.2672 0.3372 -3.9789 -4.1579 1.5597 5.5447 -0.6863 3.3259 4.3557 -2.7965 3.4039 -1.5516 -3.9821 0.1822 -3.3707 -2.9674 1.4205 4.9651 -0.4464 2.0168 3.7973 -2.5631 2.2030 3.1953 -0.0917 -4.7674 0.2058 4.3615 -5.4364 -4.2930 0.9501 7.5840 -3.4244 0.5705 3.9631 0.2652 0.0047 1.1019 -0.9398 -0.8285 1.5300 2.5261 -0.1186 0.0353 2.5543 0.7050 -3.6485 -0.0971 2.9106 -5.1120 -4.5419 1.1053 6.1071 -2.0178 0.1549 3.5634 2.7511 0.7320 -1.1891 1.1259 1.0539 -3.9935 -0.9492 2.3226 -6.2200 -2.1097 -2.8731 0.7006 4.1208 -1.3455 1.4781
0.6493 -3.0450 -6.7901 4.9670 0.0632 -3.5912 3.8207 -1.9555 -2.6976 -1.2128 2.5333 -5.4377 0.8084 2.0461 -6.7857 -2.6771 -0.8783 8.3192 -3.4242 -2.1680 4.2289 -0.5625 -1.9548 8.6522 -0.7545 2.1014 -0.3674 -1.1471 -2.9169 6.1791 -0.5325 -1.6136 2.8384 2.2425 2.7645 -1.5403 0.4734 -0.9195 -2.7078 -1.1819 -1.1558 -7.0765 0.7797 0.5922 0.6940 -2.8873 0.5697 -0.0456 3.1280 1.2058 1.3149 -1.6932 -0.7978 5.4291 -2.0905 -0.0277 2.1421 2.6216 0.4731 -1.4845 0.9978 0.3149 -4.6135 0.6926 -1.8802 -5.9664 -5.0589 -2.5129 -2.0720 3.7890 3.3162 4.9782 -5.7107 -1.6741 -1.2471 -3.6226 -2.3874 -2.2455 4.2791 3.8314 3.8365 3.0256 2.0815 4.9473 -4.9762 -0.6483 -0.5292 -2.9425 -1.4350 -1.5828 4.0461 3.1512 2.5731 2.7978 1.4592 3.7776 3.6537 -0.6597 -3.4472 -0.4582 1.4694 -6.1935 -1.2916 -1.0760 7.7521 -2.4358 -1.0343 4.2222 -0.5898 1.2373 0.7448 -1.6706 0.1620 0.7714 1.8996 1.5993 0.5203 2.5837 0.2557 -2.9020 -0.2447 0.2301 -5.3385 -1.3833 -1.7329 6.3948 -1.5641 -0.9727 2.9990 2.2723 1.6939 -0.9380 1.2174 -0.1895 -3.3499 -0.3020 -0.9925 -6.2378 -3.6414 -0.5477 -0.6681 3.3105 2.0247 2.5405
0.5658 -3.0451 -6.6909 4.2381 -0.1689 -4.8048 5.0576 -0.5967 -2.5392 -1.5017 2.3346 -4.9201 0.3328 2.0199 -6.5509 -2.5831 -0.6073 8.1960 -3.1827 -2.6377 3.9601 -0.2622 -0.2527 7.5963 -0.7273 2.1313 -0.2783 -1.2626 -3.0643 6.1395 -0.4743 -1.5810 2.9078 2.1315 2.7422 -1.6025 0.8331 -1.2483 -2.7010 -1.4543 -1.3330 -6.6367 0.8370 0.5665 0.6680 -2.7892 0.4825 -0.0913 3.1863 1.2220 1.2610 -1.9456 -0.9810 5.3654 -2.0495 -0.0440 2.1532 2.6984 0.4950 -1.5122 0.9306 0.2769 -4.4551 0.6277 -1.8994 -5.8452 -5.1241 -2.6451 -1.8611 3.8281 3.3651 4.9106 -3.7854 -2.7801 -1.8399 -5.7433 -1.4659 -1.2830 3.5062 2.0597 4.9580 3.9186 4.0450 3.6304 -2.9592 -1.7440 -1.2425 -4.9793 -0.5191 -0.7093 3.2554 1.3311 3.7279 3.6843 3.3707 2.4901 3.8304 -0.6193 -3.4203 -0.8007 1.3428 -5.8139 -1.3175 -1.2465 7.6806 -2.5561 -1.2739 4.0916 -0.5290 1.2080 0.7780 -1.5994 0.1273 0.7878 1.9384 1.5901 0.4862 2.7086 0.2736 -2.9307 -0.3818 0.1083 -5.0305 -1.5078 -1.8740 6.3206 -1.5587 -1.0175 2.9974 2.2730 1.6930 -0.9791 1.3782 -0.3322 -3.3034 -0.4716 -1.1023 -5.9397 -3.5322 -0.6702 -0.6669 3.3187 1.9640 2.5418
-1.2303 5.2151 -5.5069 2.6711 3.6294 -0.9196 4.4644 2.2624 -1.9583 1.4564 0.1059 -7.1083 -0.5935 0.2205 -5.7015 -4.2528 1.6841 6.4333 -0.5726 -0.2299 4.6061 -3.9731 3.7525 5.2511 -0.7341 -2.7285 -1.5612 -1.6735 2.5171 4.4830 -1.5309 0.3564 1.4670 0.8574 1.2598 0.2080 2.7502 0.5681 -4.3692 -0.3339 3.6375 -7.4558 1.0113 -2.1371 -0.1372 -2.7726 -2.7483 0.3769 3.2675 -1.2558 0.3094 -2.8389 0.5831 3.9475 -1.1281 -1.8670 2.0063 2.1176 0.5134 -1.5894 1.0641 2.1593 -4.4983 -0.3179 4.1586 -5.2161 -4.9976 -5.6271 2.6545 5.3620 -0.4173 3.9359 -4.3848 -6.0308 1.5267 -4.8933 -4.2429 3.0781 5.1744 0.5773 3.0499 4.8351 -1.7432 3.6660 -3.6012 -5.0866 0.7441 -4.1685 -3.3713 2.3555 4.4487 0.3225 1.8191 4.1479 -1.9767 2.5343 3.0552 2.7787 -2.1020 0.3626 0.9958 -6.5750 -4.0154 2.3091 5.0800 -1.8037 -0.4061 3.7504 -0.4737 -1.9673 -0.3817 -1.3070 -2.5634 0.7470 1.7882 -0.9325 0.3416 2.0067 1.7209 -2.3772 0.9273 2.2528 -5.9357 -2.6967 1.8398 4.5075 -1.4787 -0.5589 2.2811 1.5081 0.3813 -0.3555 2.0052 1.3900 -3.8483 0.0190 3.4116 -6.3030 -3.4677 -3.8119 1.1589 3.9406 -0.9003 1.5811
-1.8253 3.4298 -6.8301 1.1163 4.7516 -1.4547 3.5036 4.2531 -1.9136 2.9262 -0.1814 -6.4647 0.7307 -0.5919 -5.3677 -2.4149 0.0746 7.0945 -2.5510 1.9022 2.2097 -2.2237 2.4506 6.6834 0.2279 -2.6387 -1.4397 -4.3791 1.3983 4.4850 -3.2143 -1.3355 2.5033 0.2084 2.0243 -0.0113 3.3328 1.5255 -3.9114 0.1535 2.1893 -8.1282 1.4617 -1.1658 -0.0929 -2.0736 -2.7371 -0.0281 3.0723 0.4082 1.0035 -2.1927 0.6436 4.3300 -1.3744 -0.7548 1.1964 2.0829 1.6923 -1.3389 1.2332 2.1080 -4.7142 -0.7318 2.8607 -6.1125 -3.9342 -5.8751 2.2452 4.0255 -1.7974 4.5384 -4.6911 -5.0286 1.5248 -2.4866 -5.7673 2.1975 4.5643 -2.1734 3.3646 3.1417 -0.6467 4.6004 -4.0573 -3.9804 0.7449 -1.9012 -4.7983 1.4691 4.2480 -1.4364 2.1559 2.8510 0.0400 3.4816 2.0786 3.9954 -2.3320 1.4879 0.2599 -6.3573 -3.0697 1.2884 6.4798 -1.9712 0.7027 2.9146 0.0633 -1.5604 -0.5257 -0.8938 -1.9860 0.5965 1.6442 0.2004 0.5352 1.6915 2.5351 -2.4453 1.3850 1.7537 -6.1065 -3.2944 1.1319 4.9973 -2.2774 -0.5986 2.2239 1.2126 1.3792 -0.3092 2.2074 1.9815 -3.7494 0.2137 2.2876 -6.9072 -2.7181 -3.8296 0.7550 3.4114 -0.3845 2.2099
0.0403 3.5957 -7.2521 2.7786 -1.6559 -5.1945 1.0245 -2.9185 -3.9601 -2.8110 1.8566 -2.2587 -0.7280 3.2321 -2.2422 -6.4381 -0.2701 5.8033 -1.9554 0.5792 5.8540 -6.9838 1.9534 5.1045 1.0366 1.1444 1.3649 -4.3021 2.3288 5.1787 -1.8543 1.2331 2.6033 2.8016 1.4830 -1.8801 -0.7659 -0.3713 -2.5177 -2.1638 3.6170 -5.7517 2.1151 -0.8972 0.6462 -0.7890 -1.1524 0.7784 4.4461 -0.7689 -0.2356 -3.8924 0.2098 4.3220 -0.6168 -0.6287 3.2263 2.0787 -0.6996 -2.2002 -0.1078 1.1958 -4.1043 -0.0879 2.7070 -6.1430 -2.6174 -4.9878 0.2544 7.3334 0.3085 2.7350 -3.3785 -3.8852 0.3704 -1.1693 -4.8798 0.3145 6.8483 -0.9454 2.7001 6.8975 1.2853 1.7521 -2.7527 -2.5946 0.5763 -0.5871 -3.6801 0.5022 5.8642 -1.3108 1.6998 5.9918 0.9442 0.8170 1.4622 -1.5715 -4.4709 -1.8383 2.6570 -3.0874 -6.1502 0.8054 4.7842 -2.4871 -0.0213 4.5770 1.3481 -0.1859 1.7458 0.0773 -0.9760 2.0064 3.1211 -0.0555 -0.0951 1.4510 -0.4433 -3.4699 -1.3660 1.8742 -4.3006 -4.6932 1.2185 4.8299 -1.6373 0.2944 3.3623 2.6460 0.3323 -1.4731 0.0621 0.1003 -3.2869 -1.2626 2.8350 -5.4671 -1.4154 -2.4938 0.6670 5.4270 -0.3972 0.8152
2.4852 5.7572 -6.0435 4.9417 2.4269 -3.6605 5.4793 0.4081 -2.3880 -0.8295 0.7443 -6.0152 -0.9043 2.3492 -4.1169 0.1101 1.4938 6.8972 -1.3457 2.3221 2.4367 -1.9767 0.2903 7.1311 -1.3084 -2.5935 -1.7313 -2.3793 2.8570 4.9983 -3.2543 -0.3228 2.7381 1.2513 1.4720 -0.6841 1.6953 -0.1727 -4.4378 0.4927 4.3163 -7.0570 0.6253 -1.9017 -0.5866 -3.1982 -1.8685 0.0734 2.7299 -1.3584 0.6200 -1.3752 0.8370 4.4391 -1.5473 -0.4551 1.1650 2.6879 0.0787 -1.8568 1.8444 2.1422 -4.5636 2.3045 4.3993 -5.6443 -5.7537 -4.4877 2.3389 2.4886 -2.5689 4.7115 -6.2216 -3.3025 1.9086 -4.4064 -4.8998 1.9862 2.9049 -1.3221 4.4255 2.1139 -3.4756 3.6413 -5.3590 -2.4207 1.1397 -3.6128 -4.0851 1.2658 2.9744 -0.8799 3.0444 2.1749 -3.0665 2.3622 4.4882 1.0166 -3.3485 -0.4300 2.1152 -5.5315 -1.3881 1.5578 6.7338 -1.2018 0.9350 3.0151 -0.8578 -1.6390 -0.7781 -1.7275 -1.7246 0.4841 1.4433 -0.7947 0.0485 3.0528 1.0607 -2.8523 1.0525 2.3671 -5.7500 -1.7656 1.8368 5.3031 -2.1338 -0.0338 2.3357 1.7613 0.3676 -0.8689 2.1275 0.9010 -4.0352 1.2269 3.7991 -6.2215 -4.0829 -2.7656 0.8738 2.6031 -1.7118 2.0547
-3.0516 1.0783 -5.2762 5.3974 -0.1759 -3.3414 4.2972 -2.1031 -2.2252 -0.9827 -2.4045 -6.4980 1.3796 -2.6711 -5.9380 -1.0641 -2.0187 7.7500 -3.3589 -2.4074 3.5250 0.3766 -3.8298 7.1347 -0.5367 2.7336 -0.0564 -1.2756 -3.9566 4.9892 -0.6220 -1.7248 1.9347 2.4378 2.6042 -1.7950 1.0330 -1.4369 -2.5357 -1.4254 -0.1063 -3.5341 0.7983 0.8386 0.5690 -2.9186 1.5379 0.3182 3.1594 1.3069 1.3059 -1.3323 -1.6437 4.8105 -1.9454 0.1884 2.0547 2.9112 0.3630 -1.4330 1.2886 -0.1368 -4.4607 -1.7151 0.7473 -5.6537 -5.9256 -0.4412 -2.0120 3.7973 3.9202 4.6433 -4.6356 -0.7527 -2.2272 -6.2746 0.5236 -0.9847 3.4125 2.6499 4.8596 3.9815 4.4000 3.2849 -3.5962 -0.1165 -1.4389 -5.3105 1.1066 -0.2499 3.1714 1.7638 3.7349 3.7608 3.5782 2.2427 4.1126 -0.9462 -3.1748 0.0719 -2.0752 -5.4645 -0.1821 -2.5755 6.6572 -2.2351 -1.4277 3.7153 -0.4523 1.6492 0.8527 -1.6852 0.7583 0.7522 2.0295 1.6988 0.3783 2.9700 -0.0234 -2.8194 0.1816 -0.5726 -5.2865 -1.0010 -2.8394 5.4139 -1.5033 -1.0546 2.4585 2.4810 1.6215 -1.0587 1.6543 -0.6345 -3.2234 -1.0697 0.0252 -4.6961 -3.9136 0.7677 -0.4766 3.3097 2.2140 2.4746
-0.3699 4.0597 -7.2013 4.4618 0.9272 -4.7817 3.5933 -1.3780 -4.4424 -2.6146 -0.1402 -3.5472 -1.8128 2.0454 -2.7043 -2.8858 2.6408 6.7062 -4.3006 -1.4859 3.6032 -3.6496 0.7490 8.0297 0.4536 1.3176 1.3943 -5.5496 1.0953 5.2638 -1.2780 -1.3427 4.3163 2.1043 2.2900 -1.2380 0.4168 -0.8472 -3.4660 -2.3995 2.5029 -6.5265 1.7591 -0.5317 0.5612 -0.9693 -1.1230 0.0915 4.1974 -0.0509 0.2320 -3.4548 0.1048 5.2390 -1.6074 -0.2697 2.2869 2.6751 0.2568 -2.1952 0.2486 1.2688 -4.4293 -0.1604 2.9628 -6.3120 -3.1237 -4.6448 -1.0161 5.9264 -0.4483 4.1251 -3.7989 -3.5201 -0.7194 -1.6788 -4.6812 -0.8727 6.0328 0.7288 3.4827 5.2172 -1.5531 3.5050 -3.0792 -2.3385 -0.2830 -1.0123 -3.5891 -0.4537 5.4364 0.8957 2.1692 4.6588 -1.3979 2.2917 3.2296 0.0751 -4.6168 -2.1719 1.2483 -3.9370 -4.0207 1.6909 6.9898 -3.4065 -0.2901 3.8469 0.7444 -0.0589 1.5892 -0.5361 -0.8910 1.5295 2.7948 0.5141 0.2068 2.3251 0.6302 -3.5412 -1.0783 1.1879 -4.9909 -4.4297 0.9401 5.7484 -1.9848 -0.7039 3.5428 2.4888 1.1266 -1.1386 0.8988 0.2290 -3.7994 -1.3061 2.2909 -6.0119 -1.7425 -2.3722 -0.1316 4.7585 -0.1199 1.6050
-0.8296 -4.2844 -4.5604 4.5379 -1.7444 -1.8342 2.5802 -2.7003 -0.6418 0.1630 1.4728 -6.0996 1.6647 -0.3862 -6.7510 -2.7209 -3.4224 7.0705 -2.7282 -3.1638 2.4141 -0.3740 -2.8111 7.0911 -0.5378 3.0940 0.7140 -0.8073 -4.3506 4.2625 -0.2280 -1.4866 2.3025 2.4038 2.2926 -1.6771 -0.0322 -0.9409 -1.9708 -1.5520 -2.1988 -6.0114 0.9162 1.2999 1.4332 -2.7981 1.6212 0.7062 3.2395 2.2377 1.4185 -1.8500 -2.3012 4.5830 -1.8609 0.1623 2.3889 2.2200 0.1712 -0.7639 1.1002 -0.7830 -3.9937 -0.1676 -3.0340 -4.3811 -5.0293 -0.2809 -2.4282 3.8028 6.1329 3.1227 -5.6521 0.5184 -1.5442 -3.6055 -0.5297 -2.2973 3.6189 5.0775 3.9362 3.7858 5.9487 1.6824 -4.8990 1.1317 -0.4658 -2.9093 0.0438 -1.2992 3.4103 3.7545 3.3736 3.5991 4.7230 1.1609 3.0392 -1.9030 -1.8386 0.3081 -0.0240 -6.1943 -1.3553 -3.6977 6.4904 -2.3798 -1.9750 3.2765 -0.4503 1.9505 1.5478 -1.5391 0.9382 1.2091 1.9386 2.1014 0.6596 2.3541 -0.5617 -1.9995 -0.0377 -0.6999 -4.8792 -1.3139 -3.5033 4.9948 -1.3580 -1.1075 2.5927 2.2073 1.5487 -0.7188 0.9926 -0.7612 -2.6172 -0.6700 -2.0483 -5.1721 -3.5807 0.8960 -0.3309 3.3842 3.5828 2.0391
0.5438 -1.6501 -7.0905 5.1572 -0.2530 -3.0028 4.7207 -1.7396 -1.0612 -1.5229 -2.6217 -1.5263 -1.4907 -0.3848 -2.6180 -2.6133 -5.8706 4.6544 0.1942 -2.6024 3.5261 -3.6837 -4.7256 6.4632 -0.6311 3.2526 0.8265 -1.6602 -2.9864 5.9285 -1.8662 -0.0358 3.9360 1.6962 2.3036 -2.0848 1.3172 -1.7716 -0.9008 -1.1764 -2.8994 -5.4843 1.0822 1.5800 1.1967 -2.7968 1.3999 1.2599 3.2194 2.8545 0.9308 -2.2787 -2.9223 3.6970 -1.0573 -0.2834 1.7615 2.8597 0.6312 -0.9690 1.0786 -1.3503 -3.1775 0.7301 -1.6268 -5.6755 -5.3314 -0.4842 -1.6525 4.3598 6.9480 0.3476 -4.8140 0.7291 -1.9168 -5.0263 -1.1451 -0.3963 4.1243 6.4955 1.5921 4.2356 6.0495 -0.7864 -3.9492 1.3763 -0.9456 -4.2178 -0.5489 0.4989 3.7174 5.1172 1.7977 3.8709 4.7691 -0.5941 4.1300 -1.0846 -2.2821 -1.3164 -1.8697 -2.8172 -3.2747 -4.5808 5.0756 -1.1907 -2.2055 3.0894 -0.3289 2.0555 1.5238 -1.3408 0.9901 1.1405 1.9013 2.4712 0.2886 2.8540 -0.3096 -2.0574 -0.0063 -2.2499 -3.4850 -2.2967 -3.4335 4.9797 -1.4134 -0.7158 3.0235 2.1308 1.8058 -1.0479 1.6749 -1.2342 -1.9417 -0.2341 -2.2945 -4.9836 -3.6469 0.7606 0.2123 3.5662 4.2905 0.7471
-2.5997 -1.7515 -5.7247 2.0015 -0.7815 -5.5838 3.9323 -0.9534 -4.1096 -1.2856 3.9871 -4.4361 -0.5708 2.7324 -6.4497 -6.2492 0.4390 2.5399 -2.1518 -0.4406 5.8143 -6.0643 2.1947 4.2142 0.6551 1.5162 1.4487 -5.2586 -0.7680 5.5752 -1.6368 1.3203 3.0218 2.5254 2.4563 -1.5742 -0.2782 -0.3647 -2.4105 -3.5581 0.6848 -5.2513 2.2630 -0.1456 0.7991 -0.6601 -1.0385 0.9053 4.5692 0.5949 0.2171 -3.7940 0.3947 4.2175 -0.4571 -0.6395 3.3407 2.3850 0.1699 -1.9424 -0.0948 1.0164 -4.2766 -1.8030 -0.7791 -5.0496 -1.8477 -5.1363 0.5379 6.6082 1.2874 3.9235 -2.7934 -4.1901 0.6772 -0.4420 -4.7740 0.5602 6.4730 2.3038 3.0530 6.0558 -0.0177 3.6067 -2.4055 -2.7987 0.8261 -0.0854 -3.4843 0.6902 5.7708 2.0965 1.7985 5.3966 -0.2073 2.4495 2.4197 -0.9190 -4.1365 -1.5126 2.7461 -5.2646 -6.1851 0.7637 4.0091 -2.6127 -0.4332 4.3716 1.2804 0.3105 1.8531 0.2515 -0.7796 2.0893 3.1026 0.9721 0.2176 1.9022 0.2405 -3.3016 -1.4496 1.4953 -4.4003 -5.0431 0.0505 4.6834 -1.5393 0.2004 3.5155 2.6549 1.2961 -1.1903 0.3890 0.2489 -3.2359 -2.3900 0.4450 -4.9653 -1.1041 -2.4562 0.8332 5.2359 0.8951 1.5135
1.2949 1.6892 -8.0282 4.8446 1.8291 -2.5484 4.2742 -0.0593 -4.0573 -1.4492 3.9158 -3.0933 0.2090 5.0122 -4.5702 -2.0656 4.2142 3.7593 -2.4761 -0.9324 4.5444 -4.1101 3.1993 4.5727 -0.9373 -2.4289 -1.5544 -1.6392 1.7000 6.1462 -2.1801 0.3376 1.4658 1.2088 1.1111 -0.1352 0.8072 -0.0603 -4.0136 -0.9850 2.6594 -7.0814 0.9851 -2.2677 -0.2068 -2.7846 -2.3815 0.4684 3.2810 -1.6111 0.4785 -1.9490 1.3501 3.8760 -1.0396 -1.5967 2.0268 2.4065 -0.0303 -1.7588 0.9606 2.2576 -4.0557 1.0988 1.8080 -6.6203 -5.3317 -5.1697 2.4846 5.0685 -0.7328 4.2654 -5.7805 -3.9305 2.2166 -3.9748 -5.5429 2.1278 4.6358 -1.9821 4.0178 4.8945 0.3071 3.2670 -4.9075 -2.9695 1.5675 -3.1700 -4.6559 1.5165 3.9961 -2.2907 2.7513 4.2994 0.0231 2.0949 3.7795 1.2147 -3.4201 -0.8112 3.9024 -4.4612 -2.7045 3.4141 4.8683 -1.5324 -0.0333 3.7733 -0.4692 -1.8697 -0.3346 -1.3053 -2.3788 0.8303 1.8508 -1.1443 0.3185 2.4696 1.0794 -2.6746 -0.2519 2.5302 -4.7870 -2.0443 2.0697 5.0465 -1.6362 -0.3796 2.3020 1.7816 0.0993 -0.5350 1.3145 0.9909 -3.6377 -0.0962 2.3677 -6.2881 -3.6466 -3.3103 1.2422 3.8172 -1.3240 1.8330
0.2299 5.7372 -4.9738 4.7682 2.5029 -2.4420 4.8052 0.4866 -3.9002 -1.5156 0.0211 -5.0352 -1.6398 1.5348 -3.0607 -0.3654 2.2349 6.5246 -1.0742 2.0666 2.1137 -2.6981 2.1476 7.1101 -0.5917 -3.0070 -1.8572 -2.9094 2.3644 4.3998 -3.1362 -0.5256 2.1769 1.4274 1.0789 -0.0732 1.3731 -0.2924 -4.0750 -1.1311 3.8202 -6.2544 1.1347 -2.3442 -0.4113 -2.7242 -2.1346 -0.4226 3.3738 -1.7263 0.4455 -1.4087 0.6222 4.1267 -1.2113 -0.7532 0.8896 2.7808 0.0963 -1.6790 0.9770 1.9936 -4.0312 0.3979 4.3660 -4.6211 -5.8105 -4.2185 1.7341 4.8161 -1.0987 4.4165 -6.1005 -3.0846 1.0718 -4.4702 -4.7736 1.6564 4.6097 -2.3551 3.9828 4.5424 0.0295 3.5445 -5.0603 -2.3979 0.3249 -3.5100 -4.1385 0.9577 4.0826 -2.5830 2.6503 4.0608 -0.1811 2.3074 3.9583 1.5902 -3.3232 -1.3909 1.4428 -4.5466 -1.6715 1.5118 6.3035 -1.1140 0.6873 2.7226 -0.2685 -2.0198 -0.8848 -1.3363 -2.0311 0.2169 1.9644 -1.2322 0.1923 2.6768 1.1584 -2.6464 -0.0827 2.0610 -5.0038 -2.0742 1.5886 4.8527 -1.9636 -0.2706 1.9345 1.9976 0.0927 -0.5385 1.6183 0.8344 -3.6630 -0.3358 3.5035 -5.3767 -3.7973 -2.8683 0.3101 3.7972 -1.5378 1.8541
0.5072 2.1525 -8.0483 4.8333 2.3895 -3.0622 4.3976 0.3666 -4.4443 -2.1027 3.3397 -2.8197 -0.4727 4.7636 -4.0223 -3.9156 1.8932 6.4541 -0.4115 1.2552 3.7288 -4.8510 3.6026 5.0625 -0.3098 -2.6111 -1.4969 -2.5957 3.1479 3.6403 -2.1213 0.4578 1.1229 1.3896 1.5125 -0.4088 1.0931 -0.0707 -4.2608 -1.7639 2.0419 -6.6814 1.4833 -1.9154 -0.1690 -2.2524 -2.6083 0.4513 3.6591 -0.8899 0.4928 -2.8724 0.8517 3.7906 -0.7677 -1.2672 1.9018 2.6868 0.3397 -1.9324 0.6797 2.2087 -4.0394 0.5218 2.2902 -6.6288 -4.2109 -5.5257 2.9233 4.8556 -1.5885 4.5453 -4.9161 -4.5045 2.4048 -2.7919 -5.6422 2.6381 3.8017 -0.7841 4.3182 5.5573 -2.1976 3.4300 -4.2516 -3.5107 1.5800 -2.1809 -4.7291 1.8615 3.3714 -0.5206 2.9577 5.1449 -1.9709 2.1702 3.7949 1.5910 -3.8065 -1.3721 3.5527 -4.1217 -4.3457 2.2383 5.0489 -1.5660 0.3126 3.4747 -0.0107 -1.7726 -0.3846 -0.8235 -2.2334 0.8211 2.1880 -0.6404 0.2345 2.5684 1.3365 -2.9626 -0.6633 2.2826 -4.5562 -3.1631 2.1657 4.1101 -1.5510 -0.1354 2.0324 2.0277 0.5102 -0.7280 1.3669 1.0367 -3.8145 -0.7126 2.1870 -6.0668 -2.9299 -3.5972 1.3365 3.9980 -1.1110 1.9227
-2.2852 -3.9490 -2.9846 2.5403 -2.9306 -2.7385 4.0879 -1.9398 -1.1404 -0.1961 0.8105 -6.0542 0.8017 -1.4554 -6.1545 -1.0584 -3.2044 0.9206 -0.1347 -1.1656 4.8751 -2.0789 -5.1540 1.8959 -0.2972 3.2949 0.4238 -1.1931 -3.9564 4.1869 -2.4381 1.2539 4.1478 2.2864 2.1527 -1.8372 -0.3523 -0.8480 -1.2519 -2.6592 -2.1835 -4.9231 1.2601 1.8011 1.5391 -2.5550 1.6411 1.0966 3.6493 2.2384 1.1620 -2.0556 -1.9270 3.4783 -0.9754 0.3891 2.5605 2.1431 0.1934 -0.6098 0.4156 -0.9510 -3.4464 -1.3401 -2.8993 -3.1863 -4.6717 -1.4163 -1.0545 5.1672 5.8958 2.7988 -3.8498 -0.5932 -1.7295 -4.8471 -1.2470 0.3766 5.8620 5.2604 1.8381 3.8942 5.3608 3.2466 -3.1327 0.4568 -1.0265 -4.1672 -0.2881 1.0309 5.3377 4.0419 1.2479 3.4113 4.2291 2.7039 2.6248 -2.0561 -1.5034 -0.3985 -0.6441 -5.7161 -2.0617 -3.7027 1.9318 -1.5710 -0.9616 4.4428 -0.1329 2.4054 1.5104 -1.1239 1.2638 1.4209 2.2687 2.3236 0.5465 2.0162 -0.6846 -1.7510 -0.7780 -0.8299 -4.2518 -1.6805 -3.2417 3.3187 -1.7169 0.3576 3.7204 2.2407 1.5628 -0.7592 0.5446 -0.8019 -2.0839 -1.6987 -2.0367 -4.1734 -3.2514 0.5822 0.3084 4.1496 3.5525 1.6473
3.8177 -4.4694 -3.6608 3.1549 2.3709 -3.9142 4.3086 0.8274 -2.3516 -1.6484 -2.1365 -4.7837 0.2324 -1.9020 -6.3818 0.2279 -3.8527 6.7946 -2.1580 -3.5461 2.5443 2.1801 -4.3629 5.5043 -1.7649 3.1868 0.9539 0.3503 -4.4531 3.5113 -0.2776 -1.4563 1.5715 0.3852 3.1455 -2.0115 1.5836 -1.4095 -1.5022 1.2977 -4.9024 -4.3358 0.1889 1.7652 1.1475 -3.5638 1.1946 1.3057 2.1496 3.2930 0.8737 -0.6797 -2.5169 4.2756 -1.9079 -0.0884 2.5014 1.6339 1.3118 -1.3373 1.2841 -1.3120 -3.7979 2.9165 -3.3699 -3.7868 -5.9958 -0.7667 -1.6029 1.9362 6.8532 3.2432 -5.3570 0.3647 -1.9518 -5.7621 -1.3572 -0.2975 2.0172 6.9636 1.9050 1.8812 5.5406 3.8615 -4.4755 1.0244 -1.0033 -4.9290 -0.7599 0.5721 2.0719 5.7698 1.0807 1.9199 4.4336 3.0983 3.1309 1.0018 -3.2802 -0.2790 -2.6386 -5.1663 1.0549 -3.4467 5.5982 -1.7261 -2.3106 3.2972 -1.2224 2.0599 1.6210 -2.0951 0.8344 1.4032 0.8124 2.8622 0.3189 1.7815 0.7187 -2.6465 0.6601 -2.6029 -3.9753 0.2204 -3.5625 4.3447 -1.2100 -1.2687 2.3461 0.9134 2.4692 -1.1318 1.5346 -0.7724 -2.5500 1.6426 -3.7567 -4.0642 -4.2585 0.4766 0.2068 2.0222 4.5529 1.6526
0.9534 -1.4570 -7.3184 5.1079 -1.0738 -2.4862 4.0602 -2.4448 -0.6960 -2.0680 -2.1178 -2.1839 -1.4402 0.0729 -3.1731 -1.4443 -3.2509 6.9896 -3.0315 -2.7958 2.5648 0.2739 -4.7452 6.2198 -0.5493 3.2749 0.5600 -1.2347 -4.5391 3.9647 -0.3397 -1.4659 1.5234 1.9745 2.0677 -2.0316 0.7805 -1.8680 -1.0872 -1.0895 -2.5713 -6.0422 0.8563 1.3740 1.1207 -2.9055 1.8878 0.5250 3.1716 2.3530 1.1395 -1.1316 -2.2265 4.1000 -1.9179 0.2046 1.8933 2.7025 0.2162 -0.8353 0.9554 -1.3665 -3.3533 0.8998 -1.4307 -5.8924 -5.4569 0.3059 -2.5387 3.4363 6.0963 3.2112 -4.7587 1.4308 -2.7762 -5.3545 -0.3497 -1.2472 3.3520 4.9536 3.9158 3.4331 6.0545 1.7596 -3.8831 1.9724 -1.7511 -4.5423 0.1512 -0.2988 3.2447 3.6818 3.2239 3.3391 4.8756 1.1178 3.8319 -1.6970 -1.9841 -1.5192 -1.4167 -3.4013 -0.3665 -3.4681 5.9564 -2.1079 -1.7570 3.1488 -0.5018 2.0415 1.2500 -1.6242 1.1105 0.8019 1.8933 2.1615 0.3520 2.7046 -0.6932 -1.9499 -0.2140 -2.0420 -3.8613 -0.9822 -3.5092 4.5811 -1.3464 -1.0349 2.0726 2.1897 1.4944 -0.9658 1.3754 -1.3866 -2.0427 -0.1990 -2.0494 -5.3793 -3.7399 1.3339 -0.5752 3.2126 3.6421 1.8793
0.4354 1.9078 -7.6642 4.7345 1.5865 -2.9986 3.8065 -0.2324 -4.4328 -1.8159 3.8040 -2.4177 0.0410 4.8923 -3.6340 -3.9056 3.8054 2.4645 -2.0059 -0.6492 4.2756 -1.5715 4.3394 2.8530 -0.5403 -3.2279 -1.3309 -2.2902 2.3550 5.2737 -1.8647 0.2504 0.8510 1.3927 0.9484 -0.0256 0.4300 -0.1656 -3.6893 -1.6749 2.8535 -6.3643 1.3220 -2.5224 -0.0962 -2.4682 -2.6966 0.5487 3.5333 -1.6417 0.5751 -2.4512 1.4513 3.1536 -0.7986 -1.5094 1.9041 2.4374 -0.2056 -1.7444 0.6435 2.1504 -3.6774 0.3418 1.7668 -6.2476 -4.9030 -5.0626 3.1649 5.2203 -0.4810 4.3366 -5.4580 -4.0473 2.4802 -3.4942 -5.3679 2.9979 5.2668 0.3768 3.3018 4.5554 -1.7634 4.1841 -4.6372 -3.2360 1.5994 -2.7409 -4.6298 2.1647 4.6862 0.0051 2.0247 4.0039 -2.1031 3.0047 3.5003 1.0193 -3.6527 -1.0826 3.8853 -3.7336 -2.7830 3.8346 3.4718 -1.5174 0.3498 3.2457 -0.1590 -2.3078 -0.3162 -0.9977 -2.5641 0.9274 2.0706 -1.3026 0.3914 2.3559 0.8906 -2.6747 -0.6512 2.5067 -4.2020 -2.4752 2.4838 4.0657 -1.4533 -0.2921 1.8740 1.9121 -0.0730 -0.4722 1.0310 0.8587 -3.3904 -0.7202 2.4339 -5.7181 -3.3228 -3.4957 1.4650 4.0623 -1.1785 1.8838
1.5913 6.0986 -4.8618 5.1383 1.6032 -2.5781 4.5207 -0.3907 -3.9292 -1.6825 1.0527 -5.0077 -1.4758 2.4449 -2.9709 -0.6474 4.4004 3.3858 -2.7962 0.2887 4.1791 -0.1720 4.1635 5.7047 -0.9848 -2.5015 -1.8859 -0.5203 1.4561 5.5144 -0.4068 -1.2007 2.8832 1.2963 1.1699 -0.2828 1.1563 -0.0343 -4.2472 -0.4407 4.7578 -5.9027 0.6921 -2.2166 -0.2788 -3.1151 -2.2350 -0.2912 2.9626 -1.6952 0.6185 -0.9047 1.6366 3.2500 -1.8636 -0.7480 1.1237 2.5092 -0.1252 -1.7733 1.1699 2.2653 -3.8696 1.4545 4.7000 -4.6079 -6.2180 -4.4228 1.6899 3.1758 -3.0722 4.6670 -6.2596 -3.0786 1.6823 -5.0983 -5.1121 1.0732 3.0158 -3.9679 3.6766 3.2527 -1.6552 4.3582 -5.1862 -2.3221 1.0618 -4.0960 -4.4106 0.5125 2.9365 -3.5187 2.2984 3.1795 -1.2376 3.0818 4.0700 0.9511 -3.4161 -1.2250 2.3809 -4.4592 0.0397 3.5283 4.4118 -1.9416 0.6654 2.9942 -0.6824 -1.7576 -0.7136 -1.7562 -1.9745 0.3563 1.6058 -1.1330 0.2488 2.7350 0.9491 -2.7098 0.2097 2.6726 -4.8680 -0.5318 2.1255 4.4828 -1.3054 -0.5462 2.3681 1.7645 0.0861 -0.6275 1.6081 0.9682 -3.7059 0.3464 4.1540 -5.1810 -4.1225 -2.9565 0.5328 3.0020 -2.2058 2.0124
-3.0088 -0.3320 -6.0416 3.1293 -0.6021 -4.7018 1.7062 -2.4309 -3.7834 -1.6210 3.9113 -2.0423 -0.6779 3.7455 -4.3279 -3.4001 0.7943 -0.0292 -4.0165 -0.6186 4.4783 -2.7805 2.9495 0.8460 0.5139 1.3497 1.4241 -5.5046 1.8990 2.4959 -1.0500 0.3768 5.2198 2.4808 1.9289 -1.1235 -0.6618 -0.7824 -2.0757 -3.8537 1.6072 -4.4431 2.0899 -0.4869 1.3432 -0.4704 -1.4139 1.1478 4.3266 -0.4981 0.2951 -3.4119 0.9724 2.7727 -1.2663 -0.1129 2.9631 2.1679 -0.3110 -1.6427 -0.4506 1.1557 -3.3512 -2.1312 0.2162 -5.0601 -2.5062 -5.1594 1.2533 7.4259 0.2128 3.1521 -1.5839 -4.9067 2.1991 -2.7899 -4.1718 0.2277 6.8132 -0.9844 3.1290 7.0413 1.2460 2.2067 -0.8665 -3.6470 2.1913 -2.1446 -2.9931 0.2354 5.7528 -1.2359 2.1710 6.0643 1.0112 1.3128 1.8172 -0.9540 -4.0528 -1.7389 3.2331 -3.3811 -3.8942 2.0223 0.7088 -3.2114 0.6232 4.1614 1.0383 0.2510 2.1586 -0.0762 -0.7538 2.4661 3.0730 0.3197 0.5337 1.4946 -0.0502 -2.8872 -1.7734 1.7200 -3.2361 -4.3697 1.6629 2.0998 -1.7259 0.2514 4.2041 2.5335 0.7388 -0.8154 0.0087 0.0450 -2.6797 -2.7097 1.1867 -4.3030 -1.1558 -2.7179 1.2635 5.3742 -0.2679 1.3175
2.5543 -2.2440 -6.9018 5.4876 1.1863 -2.4430 5.3915 -0.2695 -0.4290 0.1680 -3.6858 -1.5846 -0.5131 -1.6829 -2.8901 0.2558 -5.2242 5.3262 -3.1162 -3.2980 2.5980 1.1868 -6.3164 3.3975 -1.0859 3.1943 1.7910 -1.1400 -5.3810 2.3380 -0.9872 -1.6138 0.8691 1.1111 1.9720 -2.1999 2.3428 -1.7199 -0.6720 1.2835 -4.0177 -5.3951 0.3201 1.3525 1.0357 -3.3024 1.7499 2.3158 1.8635 3.3604 0.8510 -0.6662 -3.2602 3.1507 -1.9934 -0.2321 2.4468 2.7320 1.0839 -0.7990 2.2991 -1.5482 -2.9962 2.4739 -2.0550 -5.4891 -7.1373 1.2165 0.4779 1.0354 7.4632 -0.1093 -6.4780 2.3758 0.3019 -6.5525 0.1684 1.2949 0.8876 7.0395 1.1587 1.4769 6.5365 -1.1357 -5.1687 2.5652 0.9025 -5.3422 0.3459 1.8548 1.1644 5.6547 1.4987 1.7414 5.2566 -0.8190 4.7902 0.0291 -1.7772 0.2733 -2.9715 -2.9083 0.6885 -5.0445 3.8918 -1.8773 -2.5111 2.9383 -0.8365 1.8088 1.9125 -2.1175 1.0057 1.7048 0.9233 2.4102 0.1367 3.2897 0.1987 -1.7891 1.7197 -2.8223 -3.3476 -0.4915 -4.6239 3.0522 -1.5803 -1.4376 1.9265 1.5819 1.8015 -1.0762 2.6017 -1.1356 -1.7169 1.7853 -3.0401 -4.8495 -4.5982 1.5724 1.6099 1.5549 4.7872 0.5464
-0.6995 2.4833 -7.2284 4.6792 0.5737 -3.8428 2.9958 -1.0501 -4.6931 -0.1590 4.8180 -1.6852 1.3996 5.2757 -3.5572 -1.5882 4.9390 3.4489 -3.1518 1.0504 2.6089 -0.7091 4.3949 5.6080 -0.2650 -3.1180 -1.5995 -1.7966 1.9919 5.0025 -0.3494 -0.6799 2.8127 2.1304 1.2408 -0.1995 0.0451 0.3542 -3.5513 -1.6864 4.1020 -5.3822 1.2665 -2.3117 -0.0370 -2.4729 -2.8169 -0.1760 3.3590 -1.3784 0.9568 -0.8781 2.0250 2.8786 -1.5580 -0.8263 0.8311 2.2723 -0.3197 -1.8991 0.9924 2.4802 -3.5798 -0.1522 2.4767 -5.9115 -5.4844 -4.7531 2.1701 3.1693 -3.5466 4.6467 -5.8171 -3.7028 1.3986 -4.0978 -5.1767 2.2552 3.5880 -4.1756 3.5340 2.8216 -2.1375 4.5969 -4.7894 -3.0037 0.6467 -3.1457 -4.5227 1.5646 3.6736 -3.4490 2.2802 2.9147 -1.4598 3.4388 3.2201 0.3281 -4.1280 0.0509 4.7108 -3.1744 -0.6871 3.9958 4.2090 -1.7371 1.1695 2.0863 -0.1130 -2.1061 -0.6122 -1.2252 -2.1848 0.4367 1.9797 -1.0579 0.4119 2.3612 0.6772 -2.9359 -0.1975 3.2936 -3.6653 -1.2098 2.5826 4.1000 -1.1211 -0.2071 1.9858 2.1193 0.0705 -0.5834 0.9874 1.1165 -3.3691 -0.7630 3.3562 -5.0726 -3.4976 -3.3721 0.7474 3.3258 -2.1501 2.2273
-0.4994 6.0194 -2.2885 4.3304 2.7573 -3.5476 5.1190 0.6271 -2.6209 -1.7705 0.7197 -4.7708 -1.7234 1.0923 -2.3163 -0.8396 5.0336 2.6809 -2.6952 0.9149 3.6033 1.2830 3.9609 2.1851 -0.8319 -2.6635 -2.0276 -0.2531 2.1942 4.5476 -0.3387 -0.7474 2.6088 1.2338 1.0699 -0.1160 1.3508 0.5094 -4.4555 -1.9755 4.6199 -3.9909 0.9236 -2.3204 -0.5047 -2.7994 -2.6023 -0.2786 3.1615 -1.7132 0.4363 -0.9252 2.1189 2.3279 -1.7532 -0.7011 0.7637 2.4614 0.0306 -1.7875 0.6698 2.3291 -3.1744 -0.0766 4.7206 -2.7007 -5.5111 -4.9027 2.0930 3.5127 -3.7080 4.2074 -4.1924 -5.1293 2.2322 -5.9744 -3.8402 1.2195 3.5975 -4.4262 3.0735 3.3015 -2.2726 4.1445 -3.2331 -4.3385 1.4786 -5.0850 -3.0811 0.5555 3.4705 -3.7662 1.7866 3.1896 -1.6592 2.9532 3.9679 1.3047 -3.3252 -1.6883 1.7512 -3.6739 0.2192 4.0766 3.1665 -1.9121 1.0638 2.3225 -0.4706 -1.8877 -0.8954 -1.4873 -2.0268 0.2368 1.7525 -1.2406 0.1520 2.6615 1.2349 -2.5590 -0.5226 2.6984 -3.8975 -0.3469 2.7057 3.4340 -1.2313 -0.2266 1.9494 1.7786 0.0731 -0.5863 1.5052 1.2911 -3.5237 -0.9573 4.1071 -3.5380 -3.6566 -3.3319 0.6919 3.2605 -2.4390 1.7281

>  <OB_ATOM_TYPES> (1hefA1)
C.3 C.3 C.3 C.3 C.3 C.3 C.3 N.3 O.3 O.2 O.2 O.2 O.2 O.2 C.3 C.3 C.3 N.am N.am N.am N.am O.3 C.ar C.ar C.ar C.ar C.ar C.ar C.ar C.ar C.ar C.ar C.3 C.3 C.3 C.3 C.3 C.3 C.3 C.3 C.3 C.2 C.2 C.2 C.2 C.2 C.ar C.ar

>  <ENSEMBLE_RMSD> (1hefA1)
3.136 3.307 3.465 3.491 3.494 3.499 3.511 3.521 3.584 3.608 3.626 3.634 3.642 3.658 3.716 3.716 3.720 3.733 3.791 3.796 3.817 3.823 3.825 3.839 3.852 3.901 3.939 3.944 3.999 4.118 4.211 4.237 4.258 4.275 4.284 4.308 4.381 4.408 4.426 4.460 4.504 4.522 4.580 4.650 4.702 4.834 4.909 4.917 5.008 5.318

$$$$
