
 OpenBabel03071213D

 59 63  0  0  0  0  0  0  0  0999 V2000
    9.0990   -3.2570   14.5710 C   0  0  0  0  0
    2.5530   -3.9860   14.9330 C   0  0  0  0  0
    3.2040   -4.5860   17.3450 C   0  0  0  0  0
   10.0000   -5.4610   16.4720 C   0  0  0  0  0
    5.2250    0.3770   16.2380 O   0  0  0  0  0
    3.2490   -0.8750   15.1340 O   0  0  0  0  0
    3.2240    4.2130   11.5650 O   0  0  0  0  0
    7.3110   -5.6670   18.8800 O   0  0  0  0  0
    4.2030   -0.8100   11.6510 O   0  0  0  0  0
    5.7480   -4.0440   14.6120 O   0  0  0  0  0
    9.4880   -3.1080   16.0160 C   0  0  0  0  0
    9.4090    1.8070   10.0750 C   0  0  0  0  0
    8.3810    0.6890   10.0660 C   0  0  0  0  0
    8.9070    2.9790   10.9220 C   0  0  0  0  0
    8.1850    0.1420   11.5070 C   0  0  0  0  0
    8.4200    2.5370   12.3250 C   0  0  0  0  0
    6.5870   -8.2860   18.1060 C   0  0  0  0  0
    4.8560    4.2820    9.9310 C   0  0  0  0  0
    7.1400    0.8600   13.7430 C   0  0  0  0  0
    1.8560    0.7120   11.0490 C   0  0  0  0  0
    6.8710   -7.1360   17.3320 N   0  0  0  0  0
    1.4670    2.4390    9.3210 N   0  0  0  0  0
    4.8140    0.7190   13.1730 N   0  0  0  0  0
    3.8550    2.2010   10.7900 N   0  0  0  0  0
    6.4780   -3.9580   16.7510 N   0  0  0  0  0
    5.3310    3.4760    8.9040 O   0  0  0  0  0
    0.6380    3.4280    9.0020 C   0  0  0  0  0
    2.4230   -8.9110   18.4560 C   0  0  0  0  0
    3.0450   -7.9800   19.2870 C   0  0  0  0  0
    7.9860    1.0720    5.3220 C   0  0  0  0  0
    6.9490    0.6820    6.1900 C   0  0  0  0  0
    7.8050    5.4840    7.1420 C   0  0  0  0  0
    3.1640   -9.6310   17.5180 C   0  0  0  0  0
    4.4130   -7.8110   19.1170 C   0  0  0  0  0
    6.7700    5.0990    8.0190 C   0  0  0  0  0
    8.4690    2.3450    5.3180 C   0  0  0  0  0
    8.3630    4.5900    6.2840 C   0  0  0  0  0
    6.3980    1.5480    7.0740 C   0  0  0  0  0
   -0.1050    2.4790   10.8870 C   0  0  0  0  0
   -0.3720    3.4610    9.8810 N   0  0  0  0  0
    4.4970   -9.4590   17.3860 N   0  0  0  0  0
    3.1240   -3.4410   16.2810 C   0  0  0  0  0
    8.9860   -4.3510   16.8030 C   0  0  0  0  0
    7.5030    1.3240   12.2990 C   0  0  0  0  0
    5.5920   -0.5110   15.2040 C   0  0  0  0  0
    4.4260   -1.5430   15.1700 C   0  0  0  0  0
    5.8810   -0.0010   13.8080 C   0  0  0  0  0
    3.0770    1.3460   11.6440 C   0  0  0  0  0
    7.5920   -4.8670   16.6030 C   0  0  0  0  0
    4.4510   -2.7300   16.1520 C   0  0  0  0  0
    3.9460    3.5200   10.8610 C   0  0  0  0  0
    7.2740   -5.9470   17.6910 C   0  0  0  0  0
    4.0180    0.2690   12.1830 C   0  0  0  0  0
    5.6030   -3.6550   15.7820 C   0  0  0  0  0
    1.0150    1.8450   10.5110 C   0  0  0  0  0
    5.1260   -8.5570   18.1790 C   0  0  0  0  0
    6.3080    3.8240    8.0360 C   0  0  0  0  0
    7.8850    3.2770    6.2080 C   0  0  0  0  0
    6.8240    2.8820    7.1170 C   0  0  0  0  0
  1 11  1  0  0  0
  2 42  1  0  0  0
  3 42  1  0  0  0
  4 43  1  0  0  0
  5 45  1  0  0  0
  6 46  1  0  0  0
  7 51  2  0  0  0
  8 52  2  0  0  0
  9 53  2  0  0  0
 10 54  2  0  0  0
 11 43  1  0  0  0
 12 13  1  0  0  0
 12 14  1  0  0  0
 13 15  1  0  0  0
 14 16  1  0  0  0
 15 44  1  0  0  0
 16 44  1  0  0  0
 17 21  1  0  0  0
 17 56  1  0  0  0
 18 26  1  0  0  0
 18 51  1  0  0  0
 19 44  1  0  0  0
 19 47  1  0  0  0
 20 48  1  0  0  0
 20 55  1  0  0  0
 21 52  1  0  0  0
 22 27  1  0  0  0
 22 55  1  0  0  0
 23 47  1  0  0  0
 23 53  1  0  0  0
 24 48  1  0  0  0
 24 51  1  0  0  0
 25 49  1  0  0  0
 25 54  1  0  0  0
 26 57  1  0  0  0
 27 40  2  0  0  0
 28 29  1  0  0  0
 28 33  2  0  0  0
 29 34  2  0  0  0
 30 31  1  0  0  0
 30 36  2  0  0  0
 31 38  2  0  0  0
 32 35  2  0  0  0
 32 37  1  0  0  0
 33 41  1  0  0  0
 34 56  1  0  0  0
 35 57  1  0  0  0
 36 58  1  0  0  0
 37 58  2  0  0  0
 38 59  1  0  0  0
 39 40  1  0  0  0
 39 55  2  0  0  0
 41 56  2  0  0  0
 42 50  1  0  0  0
 43 49  1  0  0  0
 45 46  1  0  0  0
 45 47  1  0  0  0
 46 50  1  0  0  0
 48 53  1  0  0  0
 49 52  1  0  0  0
 50 54  1  0  0  0
 57 59  2  0  0  0
 58 59  1  0  0  0
M  END
>  <MOLID> (1hivB1)
1hivB1

>  <SMILES_CANONICAL> (1hivB1)
CC[C@@H]([C@@H](C(=O)NCc1ccccn1)NC(=O)[C@@H]([C@H]([C@@H]([C@@H](NC(=O)[C@H](Cc1[nH]cnc1)NC(=O)COc1cccc2c1cccc2)CC1CCCCC1)O)O)C(C)C)C	

>  <FINGERPRINT> (1hivB1)
0000010000000101001000000000001000000001100000000111000000001000001000000001000001000001000010000001010110000000000011100001001000000100000111000001001011100000000000000001000000000000000000000000001000000000001000000010000000100010000000000011000000001101000000000100000000001001100000000000000000001001000010101100000000100000001001011000000000000100010100000000000111111000000000000001011010000000100010000001101000000000100100000010100000000010100000010001101000010100000000010000001000001100000000010000110000010000000000000000000000000000100011100000000000000000000000100000001011100000001000000001100001000000000000100000101000000001111000000000000000001100000000000011100000110111100001100011100000110111100000000000000010000001000100100101000000000000000110000000000000010100000100000000000111000000000000000000001000000000000000000000000000000000010010001001000000000000000000010000000100001100000000000000001100000100000000000100011000000000000010010110000000000110010000000000000000100000000000000110101000000000

>  <MACCS166> (1hivB1)
000000000000000000000000010000000000000000001000010011000000000010000001010111110010000011110011111000011001011011101111100011111011000111111110111010111111111110111000

>  <OB_MW> (1hivB1)
811.463

>  <OB_logP> (1hivB1)
5.9243

>  <OB_PSA> (1hivB1)
207.66

>  <OB_MR> (1hivB1)
226.553

>  <OB_ATOMIC_CHARGES> (1hivB1)
7.00295e-05 0.0005759506 0.0005759506 0.0022754209 -0.2185526453 -0.2198414136 -0.2692702746 -0.2714763177 -0.2714744864 -0.27325509 0.0022062645 5.8e-09 7.228e-07 7.228e-07 5.72375e-05 5.72375e-05 0.1605237645 0.2911392619 0.0243649235 0.0785184467 -0.1974626272 -0.2267456566 -0.2030458619 -0.1942237571 -0.1977182083 -0.465566812 0.1986492802 0.0206586142 0.0028602321 2.523e-06 9.95157e-05 0.00311246 0.0985113018 0.0165260627 0.0369161584 9.82658e-05 0.0001990391 0.0030119523 0.1153994534 -0.221231758 -0.2463789898 0.0112493935 0.0289608272 0.0017918825 0.2022979889 0.1923973909 0.1281748452 0.1787572614 0.1726470748 0.1111118343 0.2862883228 0.2615707616 0.2616402835 0.2438683318 0.0820733751 0.0808963467 0.1391864617 0.0029162217 0.0340044975

>  <MCT_HBD> (1hivB1)
7

>  <MCT_HBA> (1hivB1)
14

>  <ENSEMBLE_TOTAL> (1hivB1)
50

>  <ENSEMBLE_COORDS> (1hivB1)
-0.2542 -0.6154 6.4680 2.8367 -4.5582 1.4076 4.4424 -2.7757 0.9519 -2.5087 -2.1337 4.8595 2.7133 -0.0385 -0.7722 1.8727 -0.2595 2.7254 -3.1465 4.6089 -2.8127 0.7728 -4.9418 4.8523 1.3202 2.6275 -2.0490 -0.3029 -2.6254 0.9536 -0.2829 -2.0403 5.9719 5.0552 4.6873 3.4566 4.3678 5.4417 2.3383 4.1924 3.5426 3.9418 4.0353 4.5133 1.1913 3.8676 2.6051 2.7998 -1.6174 -6.2321 5.7349 -1.8598 4.6386 -4.8270 2.9905 2.4027 0.4990 -1.8868 1.8382 -1.4895 -1.5217 -5.2278 4.7073 -2.6477 1.5047 0.8905 0.5651 2.2537 0.1151 -0.9970 3.7318 -2.7720 0.6308 -2.9107 3.0577 -1.0266 3.6551 -5.4171 -3.8167 1.8504 1.5676 -3.4850 -9.6630 4.1894 -3.9192 -9.1393 5.4590 0.7177 1.1251 -9.4374 0.0752 0.7166 -8.1994 0.1350 5.7559 -8.1807 -2.5004 -9.0323 3.5352 -3.3712 -8.0256 5.9606 -0.3908 5.3906 -6.9995 0.8473 2.4205 -9.7779 0.5343 4.7486 -9.1416 -0.3996 1.6094 -7.3115 -4.1125 2.4864 -0.4425 -4.7203 2.4430 0.8074 -1.8438 -7.9187 3.9985 3.1593 -3.1059 1.6794 -1.0138 -2.1147 4.6512 3.1958 3.3436 1.6596 1.8300 0.1361 0.3282 2.3494 -0.7143 1.4732 1.7217 1.6062 0.6833 -0.9981 3.0677 -1.4864 -0.5818 -3.2562 3.7541 2.0352 -2.1839 1.2439 -2.0921 4.3164 -3.3692 -0.3355 -4.5540 4.4942 0.4255 2.6281 -1.2090 0.6571 -2.5919 1.7185 -2.8863 1.9362 -0.4058 -2.2772 -7.4396 5.1279 -0.6450 3.9855 -6.7008 0.3629 3.4441 -8.8654 -0.2676 3.0369 -7.5872
1.9344 -3.9041 6.9647 3.6098 -3.9717 1.8034 4.8829 -1.9256 1.4181 -1.1014 -3.5791 6.0700 2.8237 0.3725 -0.6591 1.7349 0.0938 2.7782 -3.6044 3.8643 -3.0881 0.6941 -5.4961 2.6434 1.1191 2.9885 -1.9925 0.1769 -2.6509 0.9579 1.2187 -4.4460 5.7516 3.7805 5.7391 3.6340 3.1214 6.2436 2.3667 3.1880 4.4155 4.0703 3.1982 5.2117 1.2599 3.2844 3.3914 2.9600 -1.5851 -6.8923 3.6105 -2.2041 4.2853 -4.9855 2.6989 2.8722 0.6085 -1.8803 1.4446 -1.6548 -1.4526 -5.4606 3.5077 -2.5785 0.8629 0.6951 0.3305 2.3744 0.0974 -1.3231 3.4758 -2.9043 0.9951 -2.7871 3.1230 -1.2360 3.4294 -5.5717 -3.7945 0.9451 1.3719 -4.6872 -8.2248 6.1101 -4.5649 -8.7815 4.7870 1.5368 1.6085 -9.3950 0.7844 0.9911 -8.3157 0.0882 5.9641 -7.8739 -3.8466 -7.2471 6.4757 -3.6387 -8.3199 3.9364 -0.5701 5.4078 -6.8423 1.5374 2.9398 -9.5927 0.7915 5.1278 -8.8261 0.0596 1.7166 -7.4448 -4.2019 1.5933 -0.6159 -4.7942 1.3774 0.6239 -2.8324 -6.7510 5.6923 3.6070 -2.4744 2.0151 0.1749 -3.4613 5.2759 2.5954 3.8982 1.7109 1.8636 0.4482 0.3853 2.4049 -0.2961 1.5934 1.5477 1.8977 0.7013 -1.2735 2.8354 -1.6078 -0.0853 -3.4966 3.7807 2.3821 -1.8072 1.4078 -2.4743 3.8406 -3.5663 -0.2076 -4.9145 3.2413 0.1921 2.7340 -1.2291 1.0577 -2.4497 1.7896 -2.8912 1.2938 -0.5862 -2.7400 -7.2642 4.5009 -0.6483 3.9574 -6.7042 0.7805 3.7902 -8.6878 0.0206 3.1699 -7.5761
0.2845 -3.8388 6.1782 2.8542 -3.4595 3.3077 3.8670 -1.2417 3.5170 -3.2953 -3.6108 5.0588 2.4767 0.4973 0.3319 0.2876 0.3062 3.2375 -2.6923 4.9616 -3.5147 -2.2967 -4.9710 1.8639 1.3999 3.0535 -1.5407 0.0648 -2.6128 0.9537 -1.0534 -4.4019 5.7624 3.0211 6.9113 3.1865 2.9536 6.8339 1.6757 2.0115 5.9794 3.8233 3.1344 5.4102 1.1918 2.2194 4.5564 3.3488 -0.3731 -6.9432 2.5462 -1.1591 4.4180 -5.2647 2.3875 3.0640 1.3709 -1.9093 2.2634 -1.7008 -0.4732 -5.6278 3.1299 -3.1440 2.4088 0.4905 0.1258 2.7963 0.3796 -0.6756 3.9796 -2.9369 -0.1604 -2.6927 3.2630 0.0059 3.6373 -5.4491 -4.4355 2.8100 0.8271 -1.2952 -9.9967 5.2856 -0.0188 -10.0186 4.6176 1.8116 -0.3699 -7.9756 1.3502 -0.1816 -6.6099 0.5000 4.1668 -9.0177 -2.1233 -8.9692 5.0532 0.3398 -9.0220 3.7972 0.1093 4.3678 -7.7482 1.7035 0.5982 -8.9039 1.0341 2.8810 -9.4180 0.7942 0.9718 -6.1949 -4.3399 2.9125 -1.2994 -5.1868 3.1187 -0.2150 -1.8645 -7.9348 4.1867 2.5530 -1.9834 3.4477 -1.8087 -3.4229 4.8927 2.1302 4.4780 1.8391 1.3097 0.7505 1.1003 1.4222 0.0349 2.4352 1.1141 2.2488 1.2806 -0.9913 3.4705 -1.6199 -1.4065 -3.3983 3.4311 1.6782 -1.4630 2.3157 -1.6045 4.4795 -3.8209 -1.4459 -4.7388 2.7216 0.3183 3.0742 -0.9608 0.4257 -2.2943 2.0832 -3.1278 2.4932 -0.8947 -0.7044 -7.9689 3.5992 0.1528 3.2829 -6.7740 1.1067 1.8715 -8.5323 0.6379 2.0745 -7.1389
-1.3333 -1.9855 4.9764 4.1638 -2.7711 3.3826 4.1689 -0.3799 3.8771 -2.5535 -3.2084 1.8063 2.6247 0.4935 -0.0088 0.5576 -0.0998 2.9157 -1.7735 0.8653 -3.9728 0.6375 -5.4576 3.8579 0.5461 2.3478 -1.9264 1.7760 -2.7050 0.4332 -1.7928 -3.1707 4.1649 2.9900 6.6119 3.0138 2.0945 6.7661 1.8024 2.6621 5.3402 3.7667 2.2060 5.5644 0.8881 2.7975 4.1373 2.8585 -1.2305 -7.3866 2.7782 -1.5802 2.9468 -5.1204 2.1303 3.1021 0.7143 -2.5095 1.1047 -1.1070 -0.9527 -6.0600 2.2811 -3.1476 1.0921 1.3260 -0.1734 2.3601 0.2799 -2.0430 2.8506 -2.7858 1.0396 -3.1053 2.5890 -0.2343 3.4012 -5.1451 -4.3703 1.1889 1.9878 -3.9149 -7.3015 6.0161 -2.7403 -8.1313 6.1004 3.9839 1.9572 -7.6316 3.5346 1.7943 -6.2583 -0.1838 4.1519 -8.7163 -4.1087 -6.5718 4.9092 -1.8474 -8.1527 5.1024 -0.5740 4.0884 -7.4328 3.2037 2.5152 -8.5750 1.0895 3.5878 -9.1143 2.3240 2.2137 -5.8441 -4.8232 1.3907 -0.0851 -5.4005 1.3725 1.1808 -3.2733 -6.5668 3.8189 3.2856 -1.5441 3.4870 -1.3808 -2.9830 2.7258 1.9168 4.2794 1.6349 1.4853 0.6135 0.8269 1.7745 0.0404 2.2016 1.0624 2.0628 0.9548 -1.8268 2.4211 -1.4201 -0.1858 -3.8033 2.2875 2.5534 -1.2644 2.1858 -1.7831 2.0900 -3.9073 -0.1008 -5.1792 2.9178 -0.3506 2.3583 -1.0900 1.7538 -2.4251 1.6291 -3.4886 1.2435 -0.0104 -2.2053 -7.3017 3.9254 0.2173 3.3570 -6.4496 1.8801 2.9903 -8.2050 1.4234 2.8539 -6.7978
0.2290 -2.1059 -0.9556 4.8472 -2.2168 3.7029 4.2639 0.0776 4.3346 0.0274 -5.7293 -0.2350 2.7409 0.5929 0.9968 0.4900 -0.3288 3.7072 -3.2339 2.8846 -3.4608 -1.2796 -2.8510 2.6316 1.0320 2.5936 -1.0358 1.6067 -3.2228 4.2335 -0.5438 -3.3225 -0.5055 0.9500 6.8790 3.6142 1.0155 6.7601 2.1062 0.2586 5.6772 4.2233 1.6945 5.4719 1.6920 0.9465 4.3919 3.8133 -2.8503 -5.2574 2.8086 -1.3898 3.2665 -4.9314 1.7469 3.0157 1.9077 -1.8335 0.7524 -1.3161 -1.4225 -5.1616 2.6220 -4.3238 0.7221 -1.6621 -0.2318 1.9893 0.8088 -1.0739 2.6646 -2.6311 1.4223 -3.0623 1.9253 -0.2213 2.4921 -5.1437 -5.4072 0.6939 -0.7866 -3.3579 -7.9218 6.0138 -3.4748 -8.4254 4.6689 3.8319 0.9470 -7.7525 2.8482 0.2670 -6.9261 1.4987 5.1237 -7.0441 -3.1106 -6.6170 6.1930 -3.3298 -7.6081 3.6179 0.6091 4.5131 -6.2431 3.7511 2.2630 -8.0205 2.5596 4.3589 -7.6688 1.8071 0.9170 -6.3747 -3.6711 0.5896 0.4453 -5.0620 0.6113 0.4857 -2.9532 -5.7041 5.1787 3.7092 -1.3101 4.1115 0.3868 -4.3167 0.1500 1.0054 4.2705 2.3050 1.5054 0.4735 1.6858 1.7351 -0.1051 3.0701 0.8199 1.8253 1.7830 -1.3515 2.1926 -1.2921 0.5173 -4.1593 1.6530 2.6075 -1.3528 3.0675 -2.0157 2.9020 -3.6076 -0.8202 -3.9514 2.3425 -0.0399 2.2726 -0.5298 1.8292 -2.6481 3.1731 -3.2229 0.6598 -0.8208 -3.0323 -6.1868 3.9742 0.6535 3.0678 -6.0439 2.6549 3.0346 -7.4553 1.6521 2.3502 -6.6043
-0.1535 -7.6282 1.0890 -3.1196 -3.8848 2.2837 -3.3103 -3.3192 -0.0893 2.8049 -6.9289 3.2039 1.7341 -1.7643 0.2150 0.1612 -3.8539 -0.7371 -1.2701 5.2426 -3.2890 -1.1549 -5.7819 4.4912 1.2272 1.1850 -1.9946 0.2885 -2.4467 2.9696 0.5923 -7.7084 2.3991 -1.2853 3.6975 3.1419 0.1922 3.9474 2.9162 -1.5415 2.3388 3.7611 0.9196 2.7662 2.3032 -0.8832 1.2012 3.0032 0.3977 -6.5403 6.7887 1.0092 5.3874 -4.0142 0.7106 0.5596 1.1822 -1.9306 2.1360 -3.0350 0.8947 -5.9817 5.5532 -3.6645 1.5186 -1.3263 -0.6968 0.6040 -0.8529 0.1429 3.4225 -2.9806 0.0128 -4.6497 2.3044 0.6643 5.4283 -5.3974 -4.7889 2.1685 -0.8253 1.0959 -4.0109 10.0927 0.3136 -5.2066 10.2725 1.3230 6.9811 -10.1685 0.1976 7.0104 -9.2484 4.0719 5.0434 -6.6911 1.5912 -3.7473 8.8764 0.0820 -6.0328 9.2435 3.0353 5.0560 -5.8347 2.5311 6.5146 -9.8026 3.9079 5.5420 -8.0423 0.3026 6.5816 -7.9772 -4.0300 3.4338 -2.3645 -5.0471 3.3192 -1.4204 1.4076 -4.5355 7.7677 -2.3594 -3.8092 0.9795 1.5091 -6.5163 2.5528 -0.0388 1.6890 1.8466 0.4646 -1.4851 -0.3406 -0.4534 -2.6834 -0.2381 -0.1579 -0.2151 0.2099 -0.7470 2.5907 -2.1951 0.8824 -5.3204 3.2496 -1.1389 -2.9102 1.0962 -0.1722 4.7026 -3.3838 0.0712 -5.7168 4.4757 0.0537 1.3953 -1.7014 -0.1895 -3.2926 2.2184 -3.2022 2.3744 -2.3156 0.6862 -5.6050 7.9414 1.7487 5.6186 -6.2307 2.7230 6.0382 -8.4411 1.5847 6.0807 -7.4911
-1.5589 -2.2615 5.8292 3.1612 -2.0327 4.9363 3.2706 0.4044 5.0723 -2.7631 -4.1481 2.8857 3.2920 1.5196 1.6404 -0.0235 0.4745 2.7211 -2.8735 4.0907 -3.5043 1.2023 -4.8369 4.4506 1.3617 2.9442 -1.4468 1.8402 -2.3463 1.4413 -1.8092 -3.5592 5.0995 2.7822 7.4933 3.6011 2.2799 7.6814 2.1866 2.0268 6.3662 4.2698 2.4239 6.4059 1.3831 2.2156 5.0766 3.5007 -0.1868 -7.2511 3.6865 -1.3110 3.6104 -5.2560 2.1942 3.9630 1.2938 -1.8252 1.6552 -1.2815 -0.1590 -5.9934 2.9777 -4.3372 1.6236 -1.3960 0.1517 2.8285 0.5286 -0.8350 3.1357 -2.9425 0.5147 -2.4464 3.3404 -0.5076 2.4598 -5.4640 -5.3369 2.0942 -0.5453 -3.1183 -9.9670 2.3325 -2.0543 -10.4422 3.1790 1.4898 -0.9303 -8.6363 0.5206 -1.0161 -7.5566 1.7196 3.8606 -8.0053 -3.1343 -8.6717 1.9904 -1.0970 -9.6069 3.6043 0.8350 3.7904 -6.9952 2.0152 0.2441 -9.0320 2.1201 2.6575 -8.7085 0.0861 0.0745 -6.8996 -3.4983 2.5316 0.4368 -4.8783 2.6476 0.5635 -2.2079 -7.7408 2.3938 2.4248 -0.7553 4.5991 -1.7055 -3.3495 3.6056 1.7771 5.2060 2.0540 1.8771 1.4174 1.5801 1.3760 0.6667 2.8062 1.2374 2.8032 1.4885 -1.0653 2.9467 -1.5275 -0.3212 -3.5911 3.0247 2.1073 -0.6371 3.1142 -1.7774 3.6339 -3.8171 0.3338 -4.8492 3.5821 0.2919 2.8896 -0.8466 1.4691 -1.8875 2.5184 -3.1654 1.9323 -0.7210 -1.2467 -8.1863 3.1492 0.2165 2.5187 -6.6362 1.5915 1.4681 -8.3698 0.5905 1.3906 -7.2793
1.6297 -0.5975 5.9067 3.1581 -4.8682 3.5118 4.6930 -3.5943 2.0974 -1.9687 -0.7096 5.1077 1.8658 -2.9421 -1.0263 2.1929 -0.8245 1.9198 -2.3505 1.2228 -6.2020 0.2220 -4.3021 5.8881 0.4335 -0.9545 -3.4294 -0.0420 -4.0157 1.8189 0.2277 -1.0684 6.2090 6.7009 1.7616 -1.8680 5.7126 1.9641 -2.9978 5.9892 1.4943 -0.5581 4.7644 0.7886 -3.1119 5.0515 0.3121 -0.6846 -2.4606 -4.5442 6.8578 -2.3282 2.9307 -4.5451 3.1277 -0.6412 -1.9343 -1.9903 0.7968 -1.7309 -2.0501 -3.9566 5.6062 -2.3946 1.9813 0.4429 0.8370 0.1899 -1.4540 -1.6202 0.6422 -4.1053 0.7172 -2.8272 3.6560 -1.1393 3.6863 -4.7344 -2.5190 3.3250 0.7944 -4.5715 -8.1111 6.1433 -5.1044 -7.1584 7.0834 0.6568 7.6269 -7.3946 0.7762 6.1865 -7.5505 -2.4243 6.9526 -3.7309 -3.4167 -7.8273 5.5263 -4.4763 -5.9971 7.3099 -2.2652 5.6215 -3.8162 -0.1581 8.1782 -6.4769 -1.7187 7.8263 -4.6452 0.1016 5.3222 -6.7694 -2.1361 3.3140 -1.2963 -2.3681 4.1589 -0.2186 -2.6795 -6.6875 5.7326 3.3567 -3.5472 2.8018 -0.5596 -1.2155 4.9275 4.0513 0.5450 -1.7985 1.6281 -1.8081 -0.2053 2.4398 -1.9348 1.0740 1.9822 -0.5351 -0.9543 -0.9673 0.9470 -2.8440 -0.5434 -2.6086 4.3275 2.2314 -3.2437 1.8241 -2.0728 1.5364 -5.0452 -0.7133 -3.7075 5.3593 0.1573 -0.0618 -2.6330 0.8389 -3.3957 2.4089 -2.1377 2.0231 -0.9195 -3.1986 -5.8208 6.5525 -1.4438 5.0291 -4.8662 -0.9322 7.3082 -5.6052 -0.7925 5.8350 -5.7360
-3.1889 -0.7634 4.8276 1.2318 -1.9899 6.3240 2.1529 0.2566 6.0387 -3.7212 -3.2313 2.1195 3.6949 -0.3663 2.1895 0.2394 0.5817 2.8299 -2.6644 3.0383 -2.7882 -1.2027 -4.2027 5.5208 1.4245 3.8004 -0.2765 1.3722 -3.1143 2.7427 -3.5879 -2.1371 4.3449 7.1360 2.9418 1.1147 6.6186 3.9732 0.1374 6.2485 2.7914 2.3323 5.2130 3.6443 -0.3211 4.8801 3.4204 2.1741 -2.8484 -6.4325 4.7193 -1.5633 4.8341 -3.9162 3.8606 1.7706 0.5843 0.1010 1.2081 -2.3298 -2.2430 -5.4379 3.8647 -0.5740 -0.7614 -0.9125 1.4947 1.5172 0.0988 -0.4829 3.5689 -2.1825 -0.5275 -2.2451 3.7447 -0.8232 4.3485 -5.0291 -1.6729 -1.6174 -0.9367 -1.6783 -10.3554 3.6986 -2.4512 -10.1396 4.8948 -0.6394 3.1062 -9.9360 -0.5368 2.3420 -8.7039 -1.5194 7.0957 -7.3470 -1.3638 -9.2974 2.9398 -2.8387 -8.9056 5.2448 -1.4054 6.4029 -6.2001 -0.9115 4.4243 -9.9362 -1.3576 6.4272 -8.6230 -0.7136 2.9065 -7.4953 -1.9220 -0.3174 -2.6076 -2.5053 -1.3882 -1.9371 -1.7231 -8.0017 3.2154 1.2088 -0.7617 5.4424 -2.8308 -2.4901 3.0849 4.2862 3.2086 0.7980 2.4017 0.1222 1.8651 1.5655 0.1889 3.1335 2.4837 1.4848 1.1639 -0.1867 2.3785 -1.4037 -1.5165 -3.2169 3.3189 1.5716 -1.0702 3.9957 -1.6454 3.7103 -2.9168 -1.6286 -4.3105 4.3744 1.0001 2.6676 -0.4899 0.8056 -2.2456 3.4009 -0.7799 0.0643 -2.0088 -2.4072 -7.8193 4.3075 -1.1792 4.9611 -6.2175 -1.1216 5.1039 -8.6667 -1.0292 4.3287 -7.4042
1.9581 -3.6427 -0.5702 3.1079 -1.3401 6.6197 1.9558 0.8206 6.5206 1.9908 -6.0421 1.5511 2.3908 0.7528 2.7619 -0.7936 -0.3508 4.1448 -0.7552 2.2062 -4.2406 -1.3102 -3.6305 2.8506 1.9093 2.2218 -0.0869 0.3437 -2.9672 5.5491 0.9776 -4.0136 0.5144 -1.4170 6.7106 3.1693 -0.5406 6.5340 1.9475 -2.1504 5.4285 3.5029 0.4343 5.3934 2.1451 -1.1784 4.2827 3.6979 -2.0283 -6.3846 2.6748 1.5219 2.7558 -4.7953 0.7285 3.0179 2.7238 -0.4556 0.2902 -1.6909 -0.7635 -5.8641 3.1249 -2.7072 0.1697 -0.5685 -0.1065 1.5859 0.8721 0.8733 2.1280 -2.5870 1.3050 -2.9173 3.4378 0.8853 3.5026 -5.8280 -4.0109 0.1095 -1.0577 -3.6822 -8.9240 5.5860 -3.7020 -9.3322 4.2046 1.1768 6.3375 -9.9953 0.7423 6.6013 -8.6339 2.4744 1.8678 -8.6862 -3.1322 -7.7432 5.9000 -3.1522 -8.5614 3.2574 2.0170 2.0800 -7.4400 1.7442 5.1699 -10.3505 2.4096 2.9246 -9.6770 0.8635 5.6836 -7.6579 -2.7578 0.1715 -2.7779 -4.0879 0.1104 -2.3766 -2.5895 -6.8674 4.9921 1.8121 -0.6586 6.2448 1.7096 -4.5678 1.7156 -0.2910 4.1077 2.4826 1.0000 0.4689 2.7710 0.5576 0.0749 4.1681 0.2174 1.6680 2.2743 0.0003 1.7265 -1.5037 1.0241 -4.2800 3.0377 1.4695 -0.9667 4.7990 0.4060 2.3466 -3.8678 -0.4753 -4.5202 2.9850 0.7389 1.8673 -0.1849 0.9711 -2.3895 4.6668 -1.9319 0.2148 -1.7176 -2.5811 -7.2726 3.7557 1.5310 3.3961 -7.0419 1.9027 4.1265 -9.3500 1.4498 4.3823 -7.9623
-2.5458 -0.9122 5.3112 3.7789 -3.5872 3.0353 4.6002 -1.2862 3.1224 -3.1511 -3.2200 3.3110 3.2489 0.4239 0.5368 0.6650 -0.0884 3.0532 -3.4518 0.4490 -3.4809 0.2801 -4.7675 5.3439 -1.0651 0.8959 0.4232 0.8044 -3.1152 1.0082 -1.8374 -2.2401 5.1876 2.4253 6.7541 3.4623 2.7480 6.7011 1.9836 1.4211 5.6864 3.8452 3.2085 5.3175 1.5728 1.8945 4.3108 3.4221 -1.8473 -6.6835 5.2738 -2.3217 2.4284 -4.1683 2.6346 2.9099 1.4965 -1.5044 3.7779 -1.1789 -1.4558 -5.7966 4.2067 0.6317 5.0812 -1.4807 0.7463 2.2989 0.0502 -2.2160 1.5718 -1.9009 0.5662 -2.9990 3.3107 -1.2142 1.9531 -4.9219 1.1048 5.8855 -2.5156 -1.1069 -10.6546 4.1134 -2.3797 -10.3218 4.6999 0.1839 0.8137 -9.6783 -0.2273 -0.0026 -8.5474 -0.8920 4.8029 -7.1709 -0.1994 -9.6822 3.9525 -2.6625 -9.0598 5.0479 -1.2136 4.0644 -6.0970 0.0929 2.1556 -9.6558 -0.4521 4.1523 -8.3858 -0.6926 0.5350 -7.4037 -0.8885 5.3677 -3.0584 0.2263 6.0815 -3.4827 -0.3801 -8.3751 4.3315 3.3633 -2.1478 3.2405 -1.8063 -2.6869 3.7441 2.1644 4.2782 1.9322 1.9571 0.4993 1.1136 1.9247 -0.2465 2.4279 1.4929 1.9420 1.2352 -1.0620 2.3634 -1.5137 -0.7039 -3.6732 3.4168 2.3030 -1.7090 2.2483 -2.6894 1.3645 -3.1748 -0.5502 -4.7793 4.4394 -0.4954 1.7561 -0.2426 1.1389 -2.6690 2.1026 -0.6590 4.7649 -1.8801 -1.5509 -8.0867 4.8204 -1.1689 2.6072 -6.1399 -0.4130 2.8102 -8.4598 -0.8017 1.9863 -7.2850
0.7661 -0.2736 7.1112 3.0428 -5.1401 3.4825 4.6806 -3.7823 2.2759 -1.9202 -1.1365 5.8028 2.5768 -2.5746 -0.7825 2.1147 -0.8326 2.3813 -2.5886 3.7411 -2.1525 0.1527 -4.9144 5.6443 2.0756 2.5676 -1.3263 -0.0357 -3.9614 1.9265 0.3688 -1.6539 6.6470 7.3993 -0.0979 -0.8349 6.6627 0.3644 -2.0740 6.4396 -0.6033 0.2205 5.6068 1.3997 -1.7401 5.4123 0.4537 0.5668 -2.4543 -5.1621 6.8290 -1.2464 5.5038 -3.0468 3.7256 -0.1426 -1.1848 -0.6370 1.1712 -3.0317 -2.0498 -4.2251 5.8102 -3.0445 0.5680 -3.4083 1.3381 0.3756 -1.1639 -0.2828 3.4542 -2.2601 0.7174 -2.9458 3.8708 -0.9987 5.3137 -4.4342 -3.9157 -0.3243 -2.7853 -5.2957 -7.9194 5.3830 -4.7411 -8.1034 6.6995 -2.3712 6.3123 -9.2093 -2.4210 5.1157 -8.3857 -0.7866 8.8329 -5.3988 -4.8986 -6.8627 4.6621 -3.8380 -7.2427 7.1875 -0.7877 7.7249 -4.6380 -1.9969 7.5048 -8.7106 -1.2055 8.7654 -6.7843 -2.0909 5.1303 -7.0811 -2.0555 -0.5396 -1.7704 -3.3653 -1.0069 -1.7970 -3.9881 -5.9267 5.0835 3.3367 -3.7490 2.9666 -0.5226 -1.5705 5.4283 4.6564 0.9282 -0.6571 2.0655 -1.5814 0.0946 2.5713 -1.8423 1.5008 2.4307 -0.1821 -0.3958 -0.2336 2.0577 -1.8659 -0.5353 -2.8354 4.5865 2.2530 -3.2354 2.0309 -1.4664 4.1410 -2.4473 -0.7355 -4.1005 5.4076 1.1869 1.7264 -1.4314 0.8442 -3.4037 2.5771 -1.8560 0.3982 -2.7144 -3.4810 -6.1172 6.2671 -1.2707 6.4538 -5.1684 -1.6322 7.6014 -7.3054 -1.6755 6.3833 -6.4576
0.5318 -3.0340 7.1080 3.4088 -2.1565 4.7133 3.6687 0.2739 4.7105 -2.6372 -4.0209 5.4811 2.5133 0.9269 1.0000 -0.0389 0.6063 3.5759 -2.4540 4.6841 -3.8776 1.1904 -4.9992 3.7033 1.3222 2.8665 -1.3389 1.1029 -2.4794 1.7819 -0.3704 -4.0766 6.4935 1.9825 7.6770 2.9247 2.0938 7.3930 1.4412 1.0232 6.7159 3.5948 2.4867 5.9524 1.1883 1.4411 5.2811 3.3492 -0.6956 -7.1229 3.3164 -0.9871 3.5909 -5.4148 1.9962 3.5754 1.6297 -2.1399 2.3955 -1.4796 -0.9741 -5.7067 3.2784 -3.1605 3.2508 0.6572 -0.0898 2.8556 0.4964 -0.6279 3.5388 -3.0248 0.3190 -2.3700 3.9639 -0.0430 2.5381 -5.3674 -4.3591 3.8954 0.9492 -1.1967 -8.8005 -0.5109 -1.7546 -9.4818 0.6296 1.1284 -2.1497 -6.8635 0.7042 -1.5852 -5.5931 0.5830 2.1846 -8.9398 -0.5345 -7.6530 -0.3121 -1.6465 -8.9592 1.8587 0.2063 2.7213 -7.7670 1.1963 -1.4094 -7.9851 0.9136 0.7760 -9.0208 0.3428 -0.2950 -5.4699 -4.4502 3.4225 -1.1289 -5.1644 4.0162 -0.0914 -0.3319 -7.0687 0.9136 2.6679 -0.8483 4.5548 -1.2432 -3.4511 5.4309 1.5262 4.9939 1.8639 1.2494 1.1188 1.6140 1.2720 0.6038 3.0414 0.8508 2.5861 1.5597 -1.0260 3.4191 -1.6380 -0.6527 -3.4503 4.0281 1.9445 -0.7508 3.2210 -1.4485 3.9955 -4.0326 -0.0180 -4.7851 3.6671 0.2060 3.0016 -0.8455 1.0658 -1.9477 2.8881 -3.2601 2.9673 -0.6983 -0.8781 -7.6765 1.9261 0.0645 1.8887 -6.5782 0.8150 -0.0071 -7.9320 0.3655 0.5726 -6.6438
-4.2363 -0.9547 3.6472 3.8101 -2.3738 0.7246 3.7070 -1.8849 3.1191 -2.7147 -3.2101 1.8910 1.4767 0.8992 0.0185 0.2227 -2.5160 0.1869 -0.4816 4.6181 -1.2659 -0.4855 -5.2022 3.3482 -1.1922 1.2789 -3.8921 0.6422 -0.5211 3.6704 -2.7855 -1.1465 3.2754 1.4313 -3.8315 -5.0283 0.1202 -3.1776 -5.4106 2.2925 -2.8853 -4.2184 -0.6187 -2.6836 -4.1853 1.5520 -2.3993 -2.9913 -1.5803 -5.9454 5.8950 -0.8646 6.1106 -3.0927 -0.5197 -1.3426 -2.1282 -3.7773 2.5015 -2.7383 -1.3326 -4.6048 5.4228 -5.0964 0.7046 -1.5793 -1.0836 0.9339 -1.5925 -1.8210 3.9282 -3.0349 0.0056 -2.5993 2.8711 0.1322 5.9622 -4.0955 -5.6816 0.6134 -0.3172 1.7880 -6.9471 8.1942 1.6153 -7.5743 6.9083 5.0730 4.7438 -4.2437 3.8585 4.0237 -4.5898 2.4072 8.5253 -2.8389 0.8574 -6.0813 8.6179 0.5540 -7.2860 6.1431 1.2799 7.8961 -3.2113 5.0430 5.9762 -3.7047 3.6889 7.8627 -2.9764 2.6353 4.5525 -4.3997 -4.7789 2.5412 -0.3893 -5.5135 1.6905 0.4296 -0.2695 -5.7373 7.9127 2.8898 -2.3207 1.9234 -2.4472 -2.6170 3.2545 0.2415 -1.7379 -3.3707 0.4968 -0.1270 -0.1223 1.1318 -1.4381 0.3036 -0.0139 -0.0372 -1.5543 -2.3372 2.7648 -2.3678 -1.0567 -2.8909 3.8025 1.7236 -1.3755 1.7049 -1.0141 4.8139 -2.3538 -0.9156 -4.3593 4.1309 -1.4648 1.5977 -2.7408 0.7255 -1.4283 2.8466 -4.5252 1.9684 -1.5800 -0.3871 -6.2892 6.7415 1.3229 6.5108 -3.6644 3.7574 6.6142 -3.4712 2.5131 5.8931 -3.8343
-2.3846 -1.5210 -0.1016 3.3849 -1.4674 6.1502 1.2905 -1.3470 7.4034 -0.7780 -3.6737 1.6268 1.1973 1.6159 3.2603 2.3101 -1.8533 3.1625 -1.7167 3.4353 -1.1519 -2.2629 -3.3874 5.6381 2.3037 2.6078 -0.6715 -1.0393 -0.2285 5.3384 -1.6506 -1.3838 1.2108 7.4811 1.0175 0.1469 6.7246 0.1160 -0.8074 6.5568 1.9824 0.8610 5.5715 -0.5837 -0.1169 5.4271 1.2457 1.5501 -3.7036 -5.4956 4.4068 -1.0221 4.7125 -3.0642 3.4926 -0.2821 1.1925 0.8090 0.5127 -2.7514 -3.1071 -4.3696 3.7290 -0.5460 -1.5403 -3.2910 1.4568 0.6595 0.2565 0.1993 2.8191 -2.3101 -0.4689 -2.0489 4.0256 -1.6409 4.1655 -4.2234 -1.7226 -1.7429 -4.0124 -1.3384 -8.9005 3.7241 -2.6063 -8.7886 3.0486 -0.6065 5.4484 -9.0508 0.0198 4.5271 -8.1165 -3.6467 6.8705 -5.5682 -0.9484 -7.9018 4.5278 -3.3728 -7.7014 3.2074 -3.0867 6.0151 -4.6961 -1.6187 6.2552 -8.6835 -3.1439 6.9599 -6.9241 -0.3747 4.4273 -6.8330 -1.3582 0.3531 -4.0908 -2.2452 -0.6340 -4.5053 -1.6818 -6.7682 4.7790 1.8838 -1.6118 6.0379 -1.8046 -2.6407 2.0348 4.6533 0.4267 0.5389 1.4897 0.3587 2.6612 2.1033 -0.5586 3.7084 2.3188 0.6475 1.4191 0.3925 1.5226 -1.6979 -1.7970 -2.3302 3.5220 1.2885 -0.6821 4.9916 -0.9199 3.5862 -2.0718 -2.3858 -3.4135 4.4136 1.4971 1.6820 -0.6738 -0.1947 -0.9406 4.7989 -0.3569 -0.1676 -3.3576 -2.8143 -6.6804 4.1459 -1.9473 5.1956 -5.0875 -2.0979 6.2081 -7.3108 -1.4624 5.2715 -6.3485
-0.7184 -0.3175 6.3926 2.7683 -3.2848 5.7837 4.5864 -1.8509 4.9974 -3.2365 -1.1116 3.7859 3.9399 -1.9770 0.8706 1.8375 0.0315 3.0607 -2.5712 2.7625 -1.8306 -0.7536 -4.2174 5.5899 2.1504 2.7641 -0.7726 1.1609 -3.9578 2.7260 -1.9242 -1.0798 5.8975 6.4294 4.1705 -1.1882 5.8114 3.3472 -2.2988 5.5805 4.1175 0.0657 5.6002 1.9144 -1.8516 5.3267 2.6883 0.5089 -3.3818 -5.2506 5.2152 -1.5234 4.6880 -2.8250 4.4308 0.4433 -0.2044 0.0376 0.7496 -2.6196 -2.7594 -4.2082 4.4311 -0.1933 -1.5106 -1.5529 1.9750 0.4785 -0.4275 -0.2620 3.0003 -1.7611 0.2822 -2.2442 4.0122 -2.1975 4.4808 -4.0580 -1.2698 -2.3733 -1.3693 -4.5777 -8.4612 2.7653 -5.4668 -8.0046 3.8028 -2.3364 4.2294 -9.1140 -2.8121 3.3623 -8.0489 -0.5646 7.2741 -5.7982 -3.3976 -7.8449 2.6154 -5.1333 -6.9652 4.5803 -1.0011 6.4796 -4.8052 -1.6822 5.3780 -8.8607 -0.7905 6.9041 -7.1818 -2.6147 3.6532 -6.7503 -2.0286 -0.7452 -2.5183 -2.3885 -1.9570 -1.9356 -2.9546 -6.8016 3.3905 3.0938 -2.0801 4.9296 -1.8641 -1.2435 4.3954 4.7310 1.8686 -0.6145 2.9062 -1.0640 1.2019 2.8276 -0.9177 2.7102 3.0831 0.2834 0.4914 0.1028 1.6475 -1.3977 -1.1455 -2.4966 3.9196 2.6380 -2.2192 3.4835 -1.5433 3.3757 -2.0948 -1.5028 -3.7233 4.7514 1.5157 1.7149 -0.8455 1.2810 -2.8905 3.3221 -0.7300 -0.4722 -2.3001 -3.7863 -6.3766 4.2964 -1.6600 5.2115 -5.1011 -1.4302 5.7590 -7.4793 -1.8944 4.8694 -6.3876
-2.7071 -1.2218 2.0342 1.8493 -0.9440 6.5369 0.3403 0.9855 6.4590 -0.3788 -3.1798 0.0226 2.7736 2.0551 2.9425 -0.6551 0.8727 3.1861 -2.5247 3.1944 -3.6866 -0.9626 -4.2504 4.1869 1.3355 2.4912 -0.7122 2.5584 -1.4324 2.9175 -2.1898 -2.5715 1.6035 -0.8862 7.6871 1.2233 -0.4074 7.3989 2.6304 0.2164 7.4440 0.2150 0.1064 5.9789 2.7492 0.7559 6.0337 0.3224 -0.4407 -6.7050 2.8067 -0.6700 2.3119 -4.9122 1.7993 4.3256 1.8253 -1.9939 1.7227 -0.7710 -0.0760 -5.3801 2.3679 -3.3653 2.8775 1.0023 -0.1218 3.0272 1.0107 -0.5789 2.6494 -2.5412 0.3707 -1.9807 3.4421 0.1014 1.1554 -4.6276 -4.6564 3.4021 1.0073 -0.6936 -9.4389 -0.3854 -1.5786 -9.5905 0.7411 3.0452 -2.7696 -5.8747 1.9116 -2.6082 -4.9793 2.6283 1.8642 -7.1926 0.1522 -8.4002 -0.4013 -1.5680 -8.7003 1.7422 1.6116 2.0383 -6.3315 3.4817 -1.7674 -6.6597 3.2547 0.5641 -7.3248 1.2442 -1.4446 -4.8742 -4.4070 2.5150 -0.9137 -5.3165 3.2065 -0.1204 0.2703 -7.4716 0.6033 0.7918 -0.2478 5.7117 -0.7082 -2.4907 1.3235 1.1985 5.7136 1.7350 1.4352 1.8679 2.5070 0.6378 1.2328 3.6336 0.8173 3.2003 2.0948 -1.0266 2.8208 -1.1783 0.1752 -3.0051 2.4423 1.3201 0.0639 4.3237 -1.3789 2.7556 -3.6566 -0.3571 -4.2556 3.1193 0.2071 2.7425 -0.3007 1.4901 -1.1763 3.4683 -3.2489 2.3148 -0.2610 -0.5420 -7.6181 1.6094 1.0769 0.9124 -5.5730 2.8156 -0.4762 -6.5947 1.6671 -0.2992 -5.6743
-3.4789 -3.9967 0.3378 3.8977 0.0866 3.6836 2.8121 -1.0476 5.5608 -1.5420 -1.4728 0.7866 1.0290 2.8926 3.9351 1.1042 0.2577 1.4116 -0.6165 4.8732 -3.3280 -0.7117 -4.8390 4.1540 -1.2157 4.9682 0.4099 -0.6442 -0.8073 4.8160 -3.0328 -3.2647 1.5807 3.8770 7.0540 -0.3246 3.4655 6.0224 -1.3556 2.9501 7.0559 0.8738 3.2950 4.6473 -0.7391 2.8138 5.6681 1.4667 1.1485 -5.9826 2.2700 0.3833 2.9024 -4.2473 2.1037 3.3209 1.0027 -2.7998 2.2269 -0.8470 0.3938 -4.7619 2.1180 -5.2396 2.7619 -0.5299 -0.2688 2.8586 0.5900 -0.8505 2.8689 -2.1829 0.1887 -1.9498 2.9790 -0.4646 1.8992 -4.7893 -6.2925 2.9660 -1.4217 -1.0836 -9.1519 0.6416 -0.8243 -9.1383 2.0587 2.5386 -1.3780 -2.1312 2.1433 -0.0044 -1.8818 0.1135 -1.3083 -6.3190 -0.6087 -8.1480 -0.1083 -0.1401 -8.1317 2.6183 -0.2239 -0.0212 -6.1319 2.1536 -2.0373 -3.2388 0.9238 -1.9955 -5.3353 1.3713 0.6758 -2.7453 -4.5826 2.5850 -2.6335 -5.9420 2.8728 -2.6924 0.1280 -7.0925 0.3718 2.6863 -0.7215 4.0900 -1.5893 -2.8283 1.4527 2.3150 4.6996 0.4151 0.6197 2.2051 2.7617 1.4262 0.9287 2.6113 0.7132 3.1810 1.5971 -1.8167 3.3197 -1.2107 -0.9247 -2.8597 2.8213 1.3792 -0.0016 3.8122 -0.4256 3.6650 -3.2267 -0.3980 -4.2467 3.1240 -1.0760 3.8146 0.0093 0.1846 -0.9345 3.9165 -4.1525 2.5290 -1.3600 0.3286 -7.0865 1.6566 0.1907 0.6969 -4.9338 1.3351 -1.3531 -4.2281 0.9323 0.0575 -3.9926
-3.7135 -4.1855 -0.5825 2.3582 0.0648 4.8848 0.8033 -1.4266 6.0492 -2.7652 -1.5754 0.9777 -0.8111 2.4743 4.2071 0.5797 0.2404 1.6838 0.1341 5.0403 -3.0632 0.9985 -3.7559 1.1136 -1.9103 4.7181 0.2727 -2.0742 -1.4379 4.1280 -3.2668 -3.9754 0.8436 2.9757 7.2451 1.9178 3.2409 6.3261 0.7446 1.5234 7.1641 2.3375 2.8660 4.8995 1.0827 1.1522 5.7412 2.6981 0.3413 -6.5095 0.8430 1.7110 3.2568 -3.3306 1.1623 3.3687 1.9660 -2.4863 2.0352 -1.7191 -0.4879 -5.4980 1.4491 -4.9805 2.2911 -1.6354 -0.7831 2.7260 0.6323 -0.2781 2.9626 -2.0994 -0.5061 -2.1462 2.5735 1.4539 2.6723 -4.6018 -5.9311 2.6938 -2.5722 2.5030 -8.7358 3.6929 2.6264 -9.0674 2.2966 -0.1189 -2.1152 -5.4576 -0.8140 -0.8404 -5.3803 4.0525 0.1233 -4.4671 1.7069 -7.7170 4.0424 1.9538 -8.3756 1.3676 3.4365 1.3173 -4.4667 1.2013 -2.2220 -5.2214 3.2890 -1.0867 -4.6980 -0.1753 0.3083 -5.0880 -4.0549 2.8113 -3.5753 -5.4198 3.0181 -3.7467 0.9829 -6.9541 3.1617 1.2153 -0.9043 4.6913 -2.1504 -2.9549 0.8938 1.4262 4.7953 1.5454 -0.6673 1.9038 2.9135 0.3561 0.7841 2.9705 -0.3141 3.0311 1.9596 -1.5917 3.2469 -1.5840 -1.2019 -3.2953 2.0377 0.0207 -0.2815 3.9979 0.4348 3.8720 -2.8464 -0.0963 -4.1737 1.4824 -1.4507 3.6544 -0.1371 -0.9818 -1.3335 3.5764 -3.7827 2.3917 -2.3266 1.0971 -7.2723 1.9048 1.9864 1.3996 -4.5903 1.9615 -1.0234 -4.9048 1.2635 0.2857 -4.8451
0.4800 -3.5262 -1.0564 -0.8073 0.5318 6.3483 -2.6348 -1.0438 5.9455 1.8397 -3.3465 1.8167 -1.1258 1.4634 1.7708 1.2086 -0.2613 3.9776 -1.2997 2.6809 -2.4183 0.2898 -4.7104 4.6549 2.8120 3.0229 -0.5593 -2.5383 -1.7039 2.5637 -0.0559 -3.0052 0.2544 5.4578 3.8100 3.8076 5.9663 2.7298 2.8776 4.1937 4.4275 3.2503 4.9137 1.6649 2.6544 3.1249 3.3694 3.0795 -0.3325 -7.3599 3.8009 -0.6782 4.4344 -3.9426 2.5770 1.1371 2.0995 2.5739 1.3502 -3.0364 -0.6745 -6.1362 3.1106 3.1669 -1.0920 -3.1130 1.2649 1.4002 0.0876 0.9453 3.1465 -2.7697 -0.5106 -2.5541 3.2904 -1.6129 3.8692 -4.8583 2.5508 -2.2053 -3.6833 -3.5462 -8.3746 6.3165 -2.2929 -7.9890 6.9137 -2.1096 4.4619 -9.8772 -1.3153 3.5614 -9.0577 -3.7044 6.6529 -5.8706 -3.6411 -8.3970 4.9802 -1.2503 -7.6381 6.1487 -2.9597 5.8397 -5.1021 -2.8654 5.4362 -9.3382 -3.6660 6.5267 -7.3140 -1.2720 3.6649 -7.7165 1.2728 -0.5586 -4.1205 1.4105 -1.9316 -4.2923 -2.6199 -8.0832 4.1174 -1.2407 -0.6502 5.5121 0.4614 -3.8263 1.4149 3.5993 2.2495 2.1752 0.0684 0.7478 2.0809 0.0428 0.4364 3.5731 1.2387 1.5721 1.5331 1.4443 1.9174 -2.2065 -0.5377 -3.8062 2.5625 -1.1899 -0.3521 4.0204 -0.4088 3.3237 -2.9653 -0.2397 -4.9060 3.5638 1.9227 2.2174 -0.8109 -1.4922 -1.5942 3.1988 2.3003 -0.0518 -3.4150 -1.5071 -7.7095 4.6764 -2.0824 4.8460 -5.7077 -2.8724 5.6086 -7.8939 -2.0421 4.7121 -7.0523
-4.4617 -1.9431 4.4584 -1.2670 -1.2535 6.5770 -0.8062 1.1390 6.3941 -3.7900 -3.9349 1.4379 2.5486 0.6236 3.7442 -0.9364 0.8769 2.7341 2.5453 0.3801 -4.8018 -1.3005 -4.4554 4.9384 2.8599 0.6907 -0.1959 0.9148 -2.4493 3.7883 -4.2080 -3.2780 3.8005 4.2076 6.7077 3.1005 4.5457 6.2113 1.7121 2.7845 6.3330 3.4509 4.3593 4.7127 1.6086 2.6109 4.8303 3.4060 -1.7155 -6.9697 3.5569 0.3699 1.3445 -4.5721 3.0115 2.7409 2.1433 -0.3150 0.7999 -1.4991 -1.5364 -5.6585 2.9750 -2.6470 1.5793 -1.0131 1.1710 2.0051 0.6930 1.8039 0.7468 -2.6724 -1.3482 -2.0487 3.4791 0.7215 2.1937 -5.6663 -3.3367 2.7625 -1.2724 1.6160 -9.3751 2.6267 1.1156 -9.3658 3.9776 -0.0071 3.0717 -10.6223 1.0612 2.4336 -9.8707 -2.5273 3.5951 -6.5280 0.9897 -8.6293 1.7065 0.0693 -8.5993 4.3141 -1.5455 3.0105 -5.8207 -1.1340 3.5039 -10.0275 -2.3953 3.7587 -7.9614 0.9798 2.2250 -8.5432 -1.4062 3.0304 -2.1241 -2.6296 3.6600 -1.9352 -0.1102 -7.8440 1.9507 -1.1014 -0.1130 5.5990 -3.3114 -3.1011 2.5976 2.9821 4.2529 2.0529 1.4719 0.8074 2.8347 0.1684 0.7930 3.6166 1.6329 2.1181 2.0649 1.0520 1.4438 -1.6443 -1.8280 -3.2805 2.8759 -0.0030 -0.3758 4.5790 1.6792 0.8111 -4.0392 -1.5369 -4.5046 3.7353 1.8073 1.3104 -0.3230 -0.0772 -1.7337 3.8959 -1.4019 1.7982 -1.5822 -0.5177 -7.8097 3.1860 -0.3574 2.4827 -6.4809 -1.2990 3.3059 -8.5948 -0.2223 2.6326 -7.8209
-0.2529 -2.1028 6.6725 3.0433 -2.1052 4.4415 3.6571 0.2573 4.3442 -3.1283 -3.3232 4.6876 3.2968 1.0242 0.9042 0.0594 0.9378 2.5525 -2.9228 4.3374 -3.4781 0.8793 -4.5580 3.7568 1.4211 2.7672 -1.9041 0.9553 -2.2794 1.3227 -1.0513 -3.2248 6.0531 3.2157 7.9653 1.2798 3.1055 7.4269 -0.1318 2.3738 7.1593 2.2477 3.4435 5.9509 -0.1872 2.7386 5.6903 2.1883 -0.9397 -6.7051 3.2549 -1.9690 3.0505 -5.2487 2.9070 3.6959 0.7022 -1.8513 2.1304 -1.1174 -1.2008 -5.3014 3.0529 -2.5858 2.9894 1.1330 0.5495 3.1678 0.2067 -0.9255 3.2302 -3.0843 0.0363 -1.9094 3.4203 -0.7356 2.5418 -5.7098 -3.7758 3.5475 1.5945 -1.6523 -8.8486 -0.2952 -2.1394 -9.3795 0.9530 2.4868 -1.3846 -5.3496 2.6083 0.0374 -5.0735 -2.1480 -0.7316 -6.5653 -0.9914 -7.6831 -0.2823 -1.9637 -8.7054 2.0976 -2.0290 0.5940 -6.3806 1.3241 -1.9382 -5.7394 -1.0139 -1.6010 -6.3221 1.5699 0.8839 -5.2045 -4.1254 3.0684 -0.4524 -4.7256 3.6125 0.6785 -0.7222 -6.9482 0.8461 2.5183 -0.7179 4.1466 -1.7387 -2.7502 4.7932 2.5781 5.1691 0.7772 1.9273 1.3383 1.0985 1.4658 0.8089 2.4451 1.6970 2.8401 1.0202 -0.9473 3.2313 -1.6411 -0.9441 -2.9704 3.5185 1.9391 -0.6074 2.7449 -1.9941 3.6256 -3.8533 -0.2941 -4.3432 3.4689 0.4725 3.0059 -1.1632 0.9290 -1.6878 2.3977 -2.8587 2.6972 -0.1957 -1.2031 -7.4240 1.9575 -0.8000 1.1653 -5.8365 0.1564 -1.0868 -5.9035 0.2749 0.3691 -5.6393
-1.7481 -3.6842 7.9770 3.0232 -2.3859 5.6726 3.3649 0.0328 5.7801 -3.1434 -4.0553 5.2087 2.9407 1.0169 2.0613 -0.0887 0.5086 4.0233 -1.2037 4.3195 -3.8435 0.9075 -5.1546 4.2355 2.1211 2.8238 -0.5451 1.2446 -2.5625 2.3789 -1.1394 -4.1897 6.6912 0.6064 7.5662 3.4868 1.3328 7.3283 2.1782 -0.2714 6.3913 3.8676 2.0907 6.0159 2.1920 0.5196 5.0995 3.8809 -1.0201 -7.1478 3.3816 0.7797 3.7352 -5.0409 1.8924 3.5551 2.4837 -0.9254 1.7365 -1.6913 -1.1501 -5.7094 3.3370 -3.1252 0.7835 -0.9627 0.2931 2.5583 0.8550 0.5774 3.3736 -2.6839 0.1341 -2.4913 4.4169 0.4356 2.4931 -5.6464 -4.3797 1.3342 -0.7064 -0.9287 -8.5931 -0.5713 0.0627 -9.0585 0.3649 -1.3039 0.1097 -9.7711 -1.8696 0.3725 -8.4581 2.5775 2.7427 -8.5936 -1.8570 -7.7266 -0.1445 0.0795 -8.6048 1.6256 2.0799 2.9674 -7.3656 -0.1166 0.6174 -10.1493 1.8304 1.9484 -9.5474 -1.2408 1.1392 -7.5479 -3.1420 2.9687 -1.2807 -4.4340 2.6423 -0.8820 -1.9459 -7.2443 1.1378 2.3690 -1.0457 5.4201 -1.7645 -3.5111 5.4926 1.1562 4.8734 2.5273 1.5450 1.0120 2.3214 1.2943 0.4817 3.7225 0.9677 2.4068 2.1268 -0.1199 3.0040 -1.4652 -0.8851 -3.5108 4.2508 1.8925 -0.8955 3.9830 -0.0738 3.8426 -3.8080 -0.2565 -4.8697 3.9707 0.9075 2.7794 -0.3653 1.0463 -2.0564 3.4804 -2.3531 1.8787 -1.3253 -1.0128 -7.6366 1.9552 0.7596 2.4715 -6.9908 0.6194 1.4631 -9.2217 0.0479 1.7400 -7.8793
2.8467 -0.9383 0.9460 1.0280 -1.2568 7.3815 -0.1998 0.8505 7.1556 3.1818 -4.5630 1.6101 1.9294 1.6358 4.2164 -1.3241 0.1662 3.5286 -1.0854 1.7017 -3.5998 -0.6577 -2.6546 1.5745 1.7280 1.9521 0.4068 -0.6577 -2.6561 4.7851 2.4755 -2.3742 0.6693 0.0939 7.6623 4.6140 0.3123 7.5883 3.1178 -0.6842 6.4574 5.0984 1.0144 6.3025 2.7319 0.0332 5.1747 4.7338 -0.7809 -5.2739 0.4396 1.1439 1.0181 -4.2002 1.0799 3.8404 2.9220 -1.4314 0.7707 -0.5784 -0.0009 -4.8757 1.5848 -3.8328 0.8587 0.1524 -0.2770 2.4039 1.4821 0.4964 1.4043 -1.9310 1.2190 -2.0885 3.5439 0.7109 1.5372 -5.4556 -4.9370 1.6003 -0.2667 -3.3774 -8.4214 1.4594 -2.6197 -8.5065 0.2369 2.2341 2.5864 -10.1507 2.0618 3.3945 -8.9549 1.1771 -1.3783 -7.5911 -3.2283 -7.3376 2.2329 -1.7597 -7.5373 -0.1029 0.9401 -0.6317 -6.4983 2.1206 1.2455 -10.1290 1.6086 -0.7482 -8.8244 1.7546 2.8489 -7.7641 -3.3001 2.3074 -1.4264 -4.6614 2.4827 -1.2100 -2.4074 -6.2758 1.9426 -0.0207 -0.5304 6.5701 2.6245 -3.1983 1.9278 0.2720 5.0806 3.2393 0.7794 1.3391 3.4362 -0.2385 0.6274 4.3138 0.1984 2.6110 2.8327 -0.3532 1.8115 -0.8302 1.3611 -3.2987 2.7611 0.3930 -0.5048 5.1123 0.0548 1.4235 -3.2388 0.1246 -3.5385 1.9113 0.5028 2.0247 0.4042 0.2372 -1.8725 4.4853 -2.7926 1.3555 -0.6205 -1.7007 -6.3904 0.8563 1.2036 0.8028 -6.5109 1.7937 0.5830 -8.8758 1.5934 1.4021 -7.6574
-4.0618 -1.6903 4.1719 0.6258 -2.1554 6.1618 1.1052 0.2378 6.2134 -3.5603 -3.9884 1.3480 2.9569 0.8783 3.3790 -0.5030 0.3630 2.4001 3.4570 3.2066 -4.7534 -1.3908 -4.5765 5.0071 3.4381 2.2584 -0.1921 1.1985 -2.7350 2.5045 -3.9641 -3.0957 3.6299 1.9996 7.6522 3.0553 2.7365 7.1641 1.8255 0.8517 6.7283 3.4050 3.2205 5.7417 2.0120 1.3433 5.3097 3.6014 -2.0791 -7.0906 3.8383 1.0702 2.9813 -4.5622 2.5865 3.4209 2.5733 0.7430 1.2887 -1.9491 -1.6348 -5.9137 3.1332 -1.4408 1.8551 -0.8263 1.3027 2.5017 0.6750 2.6009 2.6830 -2.6969 -0.9090 -2.4177 3.4185 1.0713 3.3547 -5.9323 -2.7146 2.1341 -1.3166 0.5509 -10.2786 3.0659 -0.8689 -10.5043 2.9733 -1.0217 0.5655 -9.6571 0.2651 0.5081 -8.9829 -2.4165 4.0802 -6.6423 0.9866 -9.0566 3.4005 -1.7349 -9.5040 3.1823 -1.2029 4.0981 -6.0651 -2.0014 1.3937 -9.2511 -2.6996 3.1448 -7.7124 0.5637 1.3028 -7.9378 -1.5259 1.6976 -3.0290 -2.8104 2.0519 -2.6319 0.1736 -7.9859 3.6793 0.3869 -0.8466 5.4424 -3.0056 -3.1372 2.4622 2.0702 4.8242 2.3659 1.8181 0.9613 2.5344 0.6033 0.4371 3.2822 1.5832 2.3973 2.0895 1.5507 2.5524 -1.7024 -1.5881 -3.5438 2.8191 0.8558 -0.8846 3.9966 2.4841 2.9906 -4.0322 -1.5281 -4.7049 3.7938 2.2311 2.4180 -0.3462 0.4176 -2.1103 3.2168 -0.7043 1.5865 -1.9706 -1.1031 -8.1982 3.5463 -0.1867 3.1271 -6.4484 -1.7593 2.2724 -8.1172 -0.4333 2.2494 -7.4482
4.4900 -3.9565 1.7162 -4.3263 -2.4339 2.3150 -3.5471 -4.4341 1.1340 2.1295 -2.0116 2.7475 -2.2453 -0.2975 -0.4458 -1.0680 -0.9454 2.9406 0.3506 2.4189 -3.8460 0.1570 -4.0388 5.1598 -1.6006 3.8722 -0.4747 -0.2291 -3.7206 0.2605 2.9984 -3.9629 1.4826 -3.4831 4.9204 4.4188 -1.9692 4.9621 4.3816 -4.0563 4.3363 3.1437 -1.3911 3.5975 4.0720 -3.4654 2.9713 2.8566 1.6659 -6.3218 5.9724 0.3148 4.6172 -4.8111 -1.3427 1.7256 2.4664 1.6264 4.3432 -0.3858 1.4988 -5.8460 4.6194 3.5079 3.1389 0.7807 -0.3729 2.0426 0.2677 0.3080 4.2644 -2.4430 -0.2202 -3.5420 2.5714 -0.5825 4.1285 -5.8045 4.7611 2.6976 0.3556 -1.1876 -9.3518 6.5434 -1.3509 -8.1047 7.2465 0.7510 1.3668 -9.8975 0.3903 1.0105 -8.5348 0.3345 6.0471 -8.7535 -0.1314 -9.4993 5.7323 -0.4730 -7.1062 7.0812 -0.0124 5.7344 -7.4933 0.8615 2.6485 -10.2914 0.6478 4.9993 -9.7037 0.1470 1.9383 -7.5897 3.8612 3.5941 -1.3539 5.0122 2.9475 -0.9174 0.8335 -8.5452 5.5236 -3.1129 -3.2797 2.0082 2.2714 -3.5155 2.7278 -1.9568 3.0677 2.7719 -1.4017 -0.1126 0.6892 -1.8818 -1.0493 1.7872 -1.4351 1.3802 0.9959 0.6717 3.5424 -1.2449 0.9736 -4.2908 2.8905 -1.9999 -2.4995 1.3323 0.3173 3.6328 -3.6715 0.8170 -4.6779 4.3449 -0.5737 3.2020 -0.4605 -0.7103 -3.3013 1.3094 2.9605 3.7060 -0.3610 0.6527 -7.4190 6.1473 -0.0284 4.3463 -7.0501 0.6042 3.7085 -9.3286 0.2401 3.3543 -7.9316
-1.0216 -2.7193 6.9959 2.8483 -2.4180 5.3374 3.6065 -0.0969 5.4117 -3.4655 -3.1234 4.2410 3.1717 1.1726 1.8177 0.0915 0.7711 3.7165 -2.0534 3.6560 -3.7599 0.4826 -4.9640 4.1437 1.9562 3.1087 -0.9186 1.2551 -2.3147 1.9546 -1.8379 -3.5814 6.0631 3.0024 6.8475 4.8978 2.6128 7.2695 3.4980 2.1663 5.6660 5.3391 2.7618 6.1204 2.5237 2.3446 4.5027 4.3867 -1.5435 -6.7546 3.0913 -0.1226 3.7291 -5.1618 2.3659 3.7521 2.0302 -1.0569 1.5746 -1.4244 -1.4343 -5.3266 2.9009 -2.5662 1.5157 0.5872 0.4104 2.8919 0.7962 0.0346 3.2590 -2.8123 0.1132 -2.2454 3.9700 0.2711 2.4621 -5.6682 -3.9342 1.7182 0.7587 -1.1203 -8.6209 -0.6582 -0.3432 -9.1062 0.4539 -0.5747 -1.2197 -9.0553 -0.7322 -1.1327 -7.6128 0.6897 3.4461 -9.1683 -1.9643 -7.6007 -0.4542 -0.4352 -8.5256 1.6582 0.5877 3.5289 -7.8305 -0.2226 -0.1547 -9.7984 0.4060 2.1964 -9.8446 -0.5311 0.0145 -6.9383 -3.5878 1.8923 -1.3366 -4.5854 1.9460 -0.3681 -2.1574 -6.9747 0.7523 2.4348 -0.9876 5.0684 -2.0731 -2.8614 4.7553 1.9941 4.8855 2.9610 1.7734 1.2509 2.0559 1.4741 0.6699 3.4290 1.2884 2.6930 1.9329 -0.4058 2.9466 -1.4631 -1.0182 -3.1056 3.6897 1.9811 -0.7543 3.6338 -0.8356 3.5328 -3.8500 -0.5556 -4.5544 3.6333 0.7991 2.9751 -0.5309 1.0704 -1.8353 3.0701 -2.3876 1.6433 -0.7828 -1.4108 -7.3933 1.7322 0.1254 2.3897 -7.0430 0.0065 1.1227 -9.1404 -0.1483 1.2203 -7.6666
3.2030 -1.4152 -1.2845 2.4732 -1.7292 6.3412 2.2291 0.7008 6.4398 2.4914 -4.3239 -0.2644 2.6571 1.5826 2.7008 -0.6142 0.4244 3.7886 -3.1787 1.9868 -3.2476 -0.8278 -2.0275 1.2625 0.9107 2.7481 -0.6129 0.2417 -2.5184 4.2632 1.9513 -1.9181 -0.6114 1.3875 7.6433 4.0928 1.0823 7.6345 2.6111 0.6547 6.5146 4.7847 1.4602 6.3073 1.9915 1.0512 5.1797 4.1913 -1.6975 -4.4110 -0.1156 -1.2836 1.8734 -4.6902 1.4075 3.8709 2.1234 -1.7918 0.6485 -0.5823 -0.5163 -4.2499 0.6940 -3.3147 0.7711 1.4184 -0.4546 2.5250 1.2481 -1.0718 2.2202 -2.3074 1.6526 -1.9793 2.4959 0.1236 1.7678 -4.6249 -4.7015 0.7706 1.5576 -4.2949 -7.3161 1.4882 -4.7420 -6.4994 0.3892 3.9465 -1.3807 -5.7404 3.2672 -1.0405 -4.5027 0.8008 1.3624 -8.1804 -3.0546 -7.1335 1.9598 -3.9397 -5.5663 -0.1399 0.1889 1.7158 -7.0382 3.5212 -0.9223 -6.9313 1.9301 0.4562 -8.1479 2.1780 -0.2506 -4.4715 -4.3358 0.5124 -0.5250 -5.3526 0.6176 0.4182 -2.1606 -6.2145 1.4712 1.6359 -0.5644 5.8616 2.3067 -2.9818 0.4009 0.8048 5.1334 2.6951 1.2582 1.3538 2.5926 0.7663 0.7268 3.8879 0.5205 2.6601 2.3111 -1.4059 2.0814 -0.9046 1.3510 -3.0576 1.5777 1.5672 -0.4911 4.3437 -1.9546 2.0267 -3.3452 -0.1093 -3.0164 1.1579 -0.1724 2.4705 -0.1055 1.0658 -1.7842 3.7282 -3.1256 0.6048 0.0541 -2.5868 -5.4689 0.4930 0.6064 1.1486 -5.7605 2.3460 -0.0670 -6.9812 1.6488 0.2879 -5.7198
5.0041 -2.7879 3.9646 -3.0149 -3.7654 0.4915 -1.2039 -5.3163 -0.0550 1.9773 -1.7587 4.5107 -0.3667 -0.8827 -0.7682 -1.2170 -1.5740 2.7015 1.3855 1.4498 -3.4091 -0.3489 -4.2393 5.3798 -2.3630 2.7832 -0.9795 1.6815 -3.7999 0.9393 3.6938 -3.0532 3.2640 -4.4493 3.0220 4.3813 -3.1982 3.8430 4.1556 -4.8198 2.2742 3.1186 -2.0502 2.9639 3.7093 -3.6865 1.3688 2.6851 1.0848 -5.9807 7.1259 0.1282 2.1938 -5.3138 -1.2585 1.1980 2.2055 -0.2591 4.7894 -1.6528 1.4852 -5.5839 5.7953 1.3479 6.2098 -0.3436 -0.5104 1.7821 0.0069 -0.4433 2.8551 -3.1138 0.5334 -3.6876 2.9475 0.9380 3.2500 -5.8194 2.6566 6.6318 -0.5748 -0.9929 -9.6138 6.7537 -1.7247 -8.4339 7.1384 -0.3075 6.5353 -9.5025 -0.5753 6.5031 -8.0738 1.7547 2.1710 -9.1859 0.3240 -9.5098 6.5300 -1.1041 -7.2522 7.2550 1.5658 2.1535 -7.8556 0.2792 5.5056 -10.1400 1.3093 3.3064 -9.9687 -0.2296 5.4551 -7.3029 2.1439 5.4155 -2.2464 3.1739 6.1751 -1.7016 1.0486 -8.3501 6.6513 -1.6373 -4.2294 0.9023 2.5648 -3.1299 4.2646 -2.4023 2.1486 2.4798 -0.4610 -0.5803 0.6234 -1.1745 -1.7429 1.2978 -1.2021 0.7524 0.7577 -0.1377 3.2864 -1.7738 1.5424 -4.1810 3.8589 -0.6171 -3.1080 0.9161 0.4568 2.1170 -3.8514 0.7736 -4.6407 5.0824 -1.1521 2.6068 -0.8943 0.6702 -3.5471 1.5884 1.0625 5.4173 -1.4455 0.3644 -7.2924 6.9724 0.8573 3.2412 -7.1947 0.6748 4.3333 -9.3751 0.4255 4.3026 -7.9124
-1.7255 -0.0748 1.9012 3.2188 -4.5481 4.7503 4.8527 -2.7999 4.2469 -2.6693 -3.1343 1.5094 3.9625 -2.1526 0.2692 1.9185 -0.7146 2.9146 -2.4310 2.4691 -2.4797 -1.0959 -3.2309 5.6447 1.8833 2.6771 -0.3007 1.3502 -4.5488 1.7749 -1.9348 -1.1956 2.8904 7.0763 3.5178 1.1439 6.4270 3.6847 -0.2130 6.0678 3.0097 2.1518 5.8175 2.3814 -0.6842 5.4752 1.6928 1.6972 -3.8054 -4.1709 5.5329 -1.4705 4.6091 -3.0166 4.3806 0.4579 -0.1519 0.5856 0.9103 -3.0167 -2.8495 -4.1618 4.4547 0.4489 -1.5579 -2.5427 1.9821 0.3778 -0.5691 -0.2220 2.9228 -1.9196 0.4908 -3.2003 3.4502 -2.0073 4.4555 -4.3264 -0.5068 -2.5298 -2.8282 -5.0773 -8.0757 6.4776 -5.6221 -6.9598 7.2075 -1.9696 5.7783 -9.2120 -1.6559 4.5469 -8.5060 -2.7414 7.9758 -4.9727 -4.1974 -7.8326 5.4976 -5.2510 -5.7060 6.9168 -2.4660 6.8396 -4.3095 -2.2888 6.9117 -8.5604 -2.6738 8.0083 -6.4201 -1.6558 4.4734 -7.1625 -1.2408 -0.7296 -3.7032 -1.5348 -2.0779 -3.5246 -3.7566 -6.5849 5.1350 3.3798 -3.1403 4.2218 -1.5246 -2.5090 2.2697 4.8385 1.8167 0.3273 2.9094 -1.3773 0.8218 2.9165 -1.5301 2.3298 3.0167 0.0865 0.3979 0.2338 1.5686 -1.6940 -0.9061 -3.4974 3.2372 2.8176 -2.9674 2.8216 -1.4584 3.2156 -2.4536 -1.6017 -3.5858 4.5841 1.4536 1.6362 -0.7900 1.4796 -3.6465 2.5994 -0.0701 -0.4099 -3.1245 -4.2455 -5.5879 5.8142 -2.0378 5.6436 -5.0267 -2.3124 6.9094 -7.1059 -1.9775 5.6617 -6.3773
-3.7953 -0.8800 1.6660 1.7544 -2.0810 5.8905 2.5401 0.2086 5.5557 -2.7529 -3.7182 1.0261 3.9894 -0.0683 1.9973 0.3835 0.3318 2.2557 2.4275 0.8556 -6.2004 -1.8696 -3.5938 5.2450 3.6997 0.8030 -1.7713 1.6498 -3.1665 2.3121 -3.2059 -1.8700 2.6414 4.9255 6.2185 2.4056 5.0186 6.0294 0.9074 3.6666 5.5664 2.9344 4.9911 4.5597 0.5443 3.6548 4.0880 2.6069 -3.3970 -5.9107 4.5650 0.2085 1.1129 -5.3866 3.9482 2.3604 0.8540 0.4879 -0.1312 -2.3111 -2.4077 -5.2639 3.7353 -1.1967 0.9255 -0.7697 1.9863 1.5915 -0.4239 2.1119 0.6323 -3.9370 -0.2271 -2.3990 3.4341 -0.0520 2.4878 -5.1416 -2.4572 1.4801 -0.9839 -2.3207 -9.9258 5.2193 -3.6790 -9.6182 4.8503 -1.7438 6.8963 -6.9883 -0.4257 6.4133 -6.6108 -3.5761 2.5095 -6.1091 -1.4440 -8.9195 5.3358 -4.0502 -8.3556 4.5983 -2.3627 2.0516 -5.7592 -2.8255 6.0962 -6.9790 -3.7379 3.8871 -6.5252 -0.2110 5.1393 -6.2341 -1.8667 0.6613 -2.8559 -2.8956 1.3479 -2.2227 -1.7458 -7.5937 5.1471 1.5898 -0.8448 5.0335 -2.1427 -2.7071 1.9678 3.7803 3.8424 1.1151 2.6788 0.2217 1.5299 1.7121 0.1383 2.7035 2.6357 1.6035 0.8744 1.4523 0.9809 -2.6887 -1.1737 -3.3700 2.9280 1.8327 -1.1212 3.5570 1.6867 0.8943 -5.2182 -1.8501 -4.0535 4.1062 2.5185 1.0906 -1.6009 1.0860 -2.3310 3.0153 -0.8505 0.4164 -2.0118 -2.9664 -7.3390 4.7762 -1.1891 2.9175 -5.8024 -2.6709 4.7030 -6.5911 -1.3271 4.1991 -6.2113
-3.6393 0.3256 1.9787 4.0682 -0.7214 5.9618 2.1279 -0.2028 7.3529 -0.9834 -1.3793 1.6205 1.7857 1.8248 2.6599 2.7089 -1.6493 3.2803 -0.6593 3.2214 -0.9104 -0.2639 -3.9878 3.9889 2.8663 0.6316 -1.9729 -0.3508 0.6416 5.3327 -2.4996 0.0814 2.9385 7.8015 -0.5158 0.9820 7.1729 -1.4968 0.0125 6.9485 0.7219 1.1684 5.7350 -1.8110 0.3757 5.5368 0.3474 1.5657 -2.7125 -5.3129 4.5519 -0.4078 4.3262 -3.0279 3.4821 -0.8679 0.7946 0.2375 -0.2270 -3.1253 -2.5655 -3.9309 4.1541 -1.3941 -2.1294 -2.8955 1.5916 0.4060 -0.0355 0.4776 2.1496 -2.6296 -0.0033 -1.4076 4.3143 -1.4833 3.9677 -3.8886 -2.7863 -2.2027 -2.9394 -3.2714 -7.7020 1.1334 -4.3967 -7.4465 1.9962 -1.8564 5.0457 -8.8615 -1.1919 3.9810 -8.1275 -3.1490 7.0902 -4.6734 -2.0853 -7.1655 1.4504 -4.2664 -6.6681 3.0788 -2.5316 6.1188 -3.9799 -2.4767 6.0617 -8.2345 -3.1250 7.0768 -6.1219 -1.1461 3.9564 -6.7820 -2.3126 -0.1449 -3.2173 -3.3768 -1.0356 -3.1258 -1.8504 -6.3833 2.5553 2.5574 -0.7767 6.0224 -1.9520 -1.3185 2.7804 4.9250 -0.5357 0.4978 1.9367 0.4451 2.3445 2.6027 -0.2535 3.5205 2.6249 0.3692 0.9832 0.4578 0.8250 -2.0594 -1.3743 -1.8326 4.0942 1.9076 -0.0333 4.8638 -0.2415 3.1829 -2.0636 -1.3127 -3.3516 4.0749 1.7916 0.6266 -1.3832 0.3960 -0.2136 4.8634 -1.1342 -0.7775 -3.0690 -2.8865 -6.1380 3.3026 -1.8108 5.0563 -4.6692 -2.4665 6.1068 -6.7805 -1.7764 5.0318 -6.0220
-3.0211 -1.7999 5.7986 1.6342 -2.3091 6.0465 2.2163 0.0618 6.1348 -3.8529 -3.2383 2.4932 3.4623 0.9201 3.0163 -0.1506 0.5435 2.8231 3.2615 2.4822 -5.0709 -0.5690 -4.7557 4.9211 3.5339 2.2624 -0.4616 1.2904 -2.6899 2.3467 -3.3591 -2.9788 4.9177 1.8589 7.2780 4.0735 2.3450 7.2395 2.6391 0.9910 6.0792 4.3955 3.0527 5.9351 2.3334 1.7182 4.7864 4.0906 -2.1110 -6.8707 3.6962 0.9303 2.9379 -4.6979 2.8627 3.4626 2.3265 0.5743 1.3708 -1.9956 -1.6663 -5.6389 3.0882 -1.8726 1.0055 -1.5775 1.4635 2.4573 0.5571 2.5300 2.5188 -2.9086 -0.5117 -2.2928 3.7497 0.8647 2.7588 -6.1085 -3.0042 1.8050 -1.7326 -0.3098 -9.9676 1.5031 -1.6372 -9.5416 1.1394 -1.9679 0.2441 -9.4958 -0.7291 -0.0775 -8.8063 -2.3222 4.3116 -6.9051 0.2999 -9.3641 2.5325 -2.2477 -8.5574 1.8122 -1.1577 4.0483 -6.2890 -2.6821 1.3448 -9.1980 -2.8517 3.3861 -7.8858 -0.2203 0.7104 -7.8403 -1.3648 3.0120 -2.3473 -2.7452 3.0163 -2.1912 -0.2487 -8.3528 3.2839 1.3087 -0.9482 5.4713 -2.8598 -2.7408 3.5115 2.1520 4.7572 2.6402 2.1823 0.9719 2.4022 1.1428 0.4757 3.3951 1.8658 2.3893 1.9445 1.5472 2.5263 -1.8408 -1.4597 -3.2547 3.2303 1.4500 -0.9091 3.9561 2.3426 2.6244 -4.2645 -1.1781 -4.6068 3.8656 2.3138 2.3843 -0.5314 0.7442 -2.0508 3.2412 -0.8335 1.8293 -1.9837 -1.4377 -7.9696 2.9233 -0.4415 2.8052 -6.5482 -2.1978 2.2440 -8.1619 -0.9283 1.9289 -7.4579
-2.8750 -1.1879 1.6681 0.3987 -1.3130 6.3716 -0.1580 1.0620 6.5383 -0.3442 -3.1248 -0.2039 2.5662 2.1665 3.3529 -0.9036 1.1472 2.9318 -1.4198 3.9115 -3.9879 -1.3256 -4.1830 3.8563 1.8280 2.9415 -0.4851 2.2079 -1.2446 3.1108 -2.3132 -2.4925 1.1596 -0.9172 7.5307 0.9733 -0.7376 7.3618 2.4644 0.4392 7.5890 0.3092 0.0131 6.0896 2.7838 1.1851 6.2928 0.5331 -0.8785 -6.5435 2.2471 0.3284 2.6235 -5.0008 1.8751 4.5233 2.1445 -1.4782 2.0833 -1.1891 -0.2022 -5.2691 2.1432 -3.0007 3.1339 0.5119 0.0773 3.2967 0.9825 0.2424 3.0599 -2.6228 -0.0276 -1.8316 3.2685 1.1942 1.5936 -4.5552 -4.2506 3.7408 0.4303 0.6601 -9.4665 -0.3871 -0.1047 -9.8856 0.7592 3.5563 -2.6837 -5.8946 4.0155 -1.3355 -5.6032 -1.0110 -1.2446 -5.2063 0.8583 -8.1554 -0.5784 -0.5937 -8.9827 1.6205 -0.5975 0.0055 -4.9384 2.2515 -3.0132 -5.8766 -0.0454 -2.2757 -5.5313 3.1610 -0.3364 -5.3167 -3.8309 3.0222 -1.5326 -4.7880 3.6930 -0.7756 0.3809 -7.1605 0.2401 -0.1055 -0.1181 5.5941 -0.8102 -2.3994 1.0349 1.3008 5.9240 1.9999 1.3178 2.0525 2.6900 0.2993 1.4212 3.6281 0.8331 3.4162 2.2100 -0.4298 3.1704 -1.3499 -0.0478 -2.8731 2.2586 0.7627 0.1840 4.3830 -0.3870 3.2661 -3.8302 -0.6120 -4.1557 2.8574 0.6284 3.0874 -0.2658 1.0643 -1.0198 3.5021 -2.7676 2.6851 -0.7806 -0.2894 -7.5537 1.2842 0.8146 0.3586 -5.0362 1.2667 -1.9841 -5.5814 1.7254 -0.5999 -5.3135
-3.1638 -0.8448 1.2122 -0.1356 -1.8426 6.0926 -0.5941 0.5289 6.4749 -0.5432 -2.5454 -0.7734 2.4705 1.9953 4.0168 -0.8861 1.1633 2.8635 2.0838 3.1746 -4.4796 -1.9997 -4.1316 3.0197 2.6170 3.2161 0.0742 1.8703 -1.5772 2.9501 -2.6086 -2.0535 0.5006 1.1978 8.2865 4.5661 1.6522 8.2256 3.1215 0.3687 7.0791 4.9507 2.2954 6.8957 2.7689 1.0962 5.7912 4.6248 -1.6858 -6.2986 1.1827 -0.1972 2.5994 -3.9959 2.0549 4.4070 2.7908 -0.1433 1.4653 -1.0277 -0.8842 -5.0954 1.2328 -2.3227 1.0798 -2.2327 0.5833 3.2560 1.1772 1.5184 2.7072 -2.2987 -0.4216 -1.8961 2.8673 -0.3752 2.1438 -5.3226 -3.6144 1.5644 -2.0416 0.5843 -9.6628 2.3174 -0.2393 -9.7416 1.1379 0.8649 -0.8243 -9.2453 0.6663 0.6076 -9.0920 -0.0272 -1.4271 -4.5303 0.5958 -8.5193 3.0154 -0.9533 -8.6830 0.7309 -0.2316 -0.1078 -4.3821 0.7588 -1.6744 -8.2076 0.3113 -1.9657 -5.8319 0.3679 1.1644 -7.9040 -2.4550 2.3743 -0.4487 -3.7392 2.3415 -0.9805 -0.1314 -7.3986 2.6962 -0.4997 -0.5424 5.4117 -1.0980 -2.0338 0.5335 1.3985 5.7287 3.1422 1.4102 1.9079 3.0750 0.2253 1.2136 3.7382 1.0343 3.3006 2.5586 0.5827 2.7926 -1.1881 -0.4769 -2.7689 1.7077 0.4975 -0.1674 4.3243 1.2393 2.8857 -3.6353 -1.2153 -4.0487 2.0781 1.3958 3.0832 0.0699 0.7313 -1.2658 3.2930 -1.6048 1.6357 -1.1836 -0.8362 -7.4729 1.6051 -0.0714 0.8070 -5.5057 0.4406 -1.1462 -6.8905 0.2415 0.3142 -6.7246
2.2038 -0.4645 5.4353 -4.1472 -3.8281 3.3397 -3.8964 -1.3588 3.3624 -0.5652 -1.9655 6.0854 -1.1776 -3.7891 -0.6742 -3.0778 -0.8535 0.3733 1.7447 2.3569 -0.9010 -0.8128 -5.3609 5.1089 -0.1046 -0.1241 -3.7617 -0.6536 -1.3520 2.1863 1.1772 -1.0977 4.5294 -2.9493 -3.8586 -6.7230 -3.5608 -2.4975 -6.4685 -1.6396 -4.0033 -5.9776 -3.7658 -2.2658 -4.9867 -1.8457 -3.7918 -4.4925 1.7148 -6.4664 5.7842 2.4827 3.6963 -2.7479 -2.7793 -2.3104 -2.7312 -1.8654 2.4918 -3.0739 1.4968 -5.1830 5.1598 -2.7288 4.8382 -3.2095 -1.5066 -0.3832 -1.9362 0.5572 2.3312 -2.8993 -1.0375 -3.2190 3.5123 1.9962 4.9884 -2.4022 -2.9283 5.8483 -2.2703 3.8760 -5.9932 9.3589 4.5223 -6.6163 8.2317 1.9880 8.5885 -6.0153 1.0952 7.4780 -5.7261 4.9272 7.1255 -2.4623 2.6141 -5.5638 9.2198 3.8820 -6.7428 7.0617 4.0760 6.1389 -2.1339 3.1346 8.7770 -5.3370 4.6168 8.0161 -3.5633 1.3494 6.5920 -4.7450 -2.1545 4.1934 -1.1757 -2.5952 5.5054 -1.0387 1.8679 -5.6833 8.0719 -3.8433 -2.6057 2.5118 0.5843 -2.3266 5.1740 -2.4774 -2.4430 -4.2081 -1.4785 -2.4061 -0.5619 -2.7096 -2.2233 0.3123 -1.5696 -1.8241 -1.9619 -0.6920 1.7981 -2.4091 0.2539 -3.4005 4.1472 -2.5580 -2.7735 1.7232 1.5642 2.7364 -2.0525 0.2204 -4.7515 4.8431 -0.7111 0.3386 -2.8010 -1.3024 -2.3528 2.4698 -2.2226 3.7877 -2.4572 2.4759 -6.2319 7.0612 2.8742 5.9102 -2.9242 3.4910 7.8457 -4.2789 2.5692 6.7290 -3.9556
-1.4811 1.6775 3.1947 3.9647 -4.7254 0.8140 4.2322 -3.7260 3.0293 -1.5414 -0.9454 1.4017 2.4242 -0.3916 -0.3951 1.0225 -3.7293 0.0527 -0.2486 3.0383 -1.2455 -1.3535 -4.1475 3.1168 -0.7615 -0.2803 -4.1314 2.3473 -1.0485 3.1686 -0.4965 0.5373 3.1018 2.9832 -5.1463 -4.9119 1.5349 -4.9755 -5.3170 3.5541 -3.8367 -4.4122 0.7097 -4.4214 -4.1752 2.7424 -3.3169 -3.2456 -3.0772 -3.8301 5.3581 -0.6305 4.6291 -3.0027 0.4630 -2.7146 -2.4355 -3.3106 0.7641 -2.9425 -2.1544 -2.8422 4.8497 -5.0661 -0.0497 -1.3278 -0.3254 -0.5024 -1.8552 -1.4721 2.3814 -3.1013 0.5975 -2.4481 2.5876 0.7479 4.9835 -2.8810 -5.8506 0.5960 -0.3717 -1.2809 -5.5573 8.7409 -1.4621 -6.3668 7.5626 3.1839 9.1490 -1.2282 2.7365 7.9345 -0.5660 1.1407 7.6262 -5.3381 -1.6931 -4.2827 8.7147 -2.0140 -5.8508 6.4561 0.7210 6.4978 -4.7414 2.8993 9.4000 -2.5189 1.8719 8.6211 -4.5808 2.0073 6.9967 -1.2004 -4.6083 2.1093 -1.2088 -5.6058 1.8900 -0.2652 -2.2964 -3.6779 7.6399 3.2528 -3.9495 1.8991 -1.2123 -0.7727 2.8671 1.2880 -3.1272 -3.6331 1.4266 -1.4026 -0.4708 2.0179 -2.7163 0.0218 0.8475 -1.3578 -1.8831 -1.9005 1.1251 -2.5278 -0.4281 -1.9310 3.4671 2.6877 -2.6298 1.3932 -0.7489 3.2804 -2.3407 -1.3503 -3.0994 3.7576 -0.9288 0.0567 -2.9644 1.8695 -1.9417 2.4736 -4.2690 0.9673 -1.8340 -2.4235 -4.4175 6.5785 0.9542 6.2747 -3.3201 2.1184 8.4309 -3.2726 1.6447 7.1920 -2.6015
4.6059 -5.3360 3.9518 -0.3275 -6.6432 1.8193 0.1405 -6.5376 -0.5778 3.4581 -2.6524 5.1613 -1.8378 -3.8135 -1.6755 1.2479 -2.6795 -0.1180 -1.7701 4.2907 -2.2193 -0.0842 -5.0084 4.8975 0.7465 0.3148 -3.6305 -1.1839 -3.0563 2.4588 3.2088 -5.0244 4.4304 3.3214 -3.7732 -5.9952 2.2481 -2.8999 -6.6118 3.4365 -3.5365 -4.5035 0.9195 -3.0870 -5.9083 2.0999 -3.7289 -3.8178 0.1619 -3.7354 7.4403 0.1866 4.9781 -3.4435 -0.2670 -2.9581 -3.7347 -2.5703 1.3996 -3.3943 0.5332 -3.1720 6.1661 -4.2753 2.6462 -2.0248 -0.9959 -0.8780 -2.6765 -0.5005 2.6871 -3.3165 0.9967 -3.8356 2.6336 -0.2838 6.2673 -3.0539 -5.1412 2.2645 -1.0023 -2.9514 -1.4691 9.1288 -1.8369 -1.8541 9.9565 1.8665 10.2696 -0.7496 1.1933 9.0836 -0.2458 1.5104 8.5308 -5.2476 -2.9558 -1.8444 7.8427 -0.8113 -2.5464 9.4435 0.8565 7.4448 -4.8025 2.1536 10.4218 -2.0551 1.9675 9.5373 -4.3118 0.8061 8.0785 -1.0544 -4.0967 0.4926 -1.5614 -5.0680 0.9819 -0.6934 -1.9772 -2.5996 7.2458 0.3068 -5.8038 0.7324 2.8630 -3.5825 4.1330 1.0644 -2.8087 -4.4281 -0.8554 -2.8727 -1.2642 0.2404 -3.5972 -0.5032 -0.2968 -2.1251 -2.4682 -1.1834 1.5201 -2.7838 1.3793 -3.3270 3.9339 -0.2870 -4.4031 0.6792 -0.8101 3.9736 -2.9153 0.5318 -3.9546 5.0266 -0.3591 0.2794 -3.0962 -0.2212 -3.6721 2.0105 -3.6135 1.4706 -2.3483 -0.9594 -2.9008 7.9983 0.6406 7.2369 -3.3763 1.7642 9.3790 -2.9920 1.0646 8.1682 -2.4892
-4.2527 -1.7849 2.6529 -0.8083 -1.7114 6.0664 -0.9758 0.7016 6.4187 -2.4138 -2.6355 -0.4457 2.3113 1.7533 4.0308 -1.0936 1.3230 2.8052 2.2969 2.8656 -4.4991 -1.4184 -4.3878 3.4463 2.7082 2.8706 0.0908 1.3280 -1.7270 2.9911 -3.7302 -2.7869 1.6523 1.8422 8.1444 4.4978 2.3136 8.0092 3.0639 0.8528 7.0607 4.8721 2.7908 6.6047 2.7400 1.4121 5.6848 4.5747 -1.3176 -6.4222 1.4051 -0.0455 2.5776 -4.0512 2.2314 4.1720 2.7729 -0.2129 1.4979 -1.1251 -0.9663 -5.0251 1.2693 -2.5980 1.1467 -0.4277 0.6656 3.1961 1.1273 1.6357 2.5373 -2.3189 -0.9834 -1.7676 2.8596 -0.2624 2.1456 -5.3781 -3.7881 1.8207 -0.6983 2.2341 -8.6695 1.1131 1.8175 -7.8913 -0.0253 0.6870 -1.0035 -9.2380 0.6692 0.4438 -9.1034 -0.3979 -1.4277 -4.5420 1.4613 -8.6687 2.2079 0.6832 -7.1798 0.0116 -0.4514 -0.0912 -4.4136 0.4479 -1.8205 -8.1954 -0.0909 -2.0215 -5.8281 0.4166 1.0486 -7.9283 -2.2869 2.8494 -1.7977 -3.6470 2.8488 -1.5151 0.2970 -7.9505 2.3458 -0.9829 -0.3832 5.3652 -2.4560 -2.2775 1.0186 1.7419 5.5685 3.1011 1.2719 1.7838 3.0623 -0.0028 1.2501 3.7040 1.0833 3.2039 2.5208 0.6802 2.7232 -1.2367 -1.1776 -2.6743 1.7399 0.0914 -0.1449 4.3116 1.4080 2.6996 -3.6675 -1.2169 -4.1039 2.2687 1.4809 2.9046 0.0476 0.2269 -1.2745 3.2958 -1.6511 1.8502 -1.1569 -0.0458 -7.2301 1.3184 -0.1321 0.7789 -5.5406 0.1676 -1.2398 -6.8917 0.1518 0.2356 -6.7450
3.1005 -0.6762 1.7019 -0.3094 -1.0468 7.2599 -1.3007 1.1799 7.0263 2.4512 -4.3015 1.9164 1.4986 1.8474 4.1930 -1.9717 1.0441 3.4603 -1.7469 2.6204 -3.5310 -0.7631 -1.6050 0.8701 1.3503 2.7279 0.2849 -1.6832 -1.9873 4.2358 2.5579 -1.9540 1.1084 2.3313 7.2186 4.3055 2.8295 6.7769 2.9451 0.8434 7.4883 4.3243 1.7228 6.3837 1.9879 0.0633 6.2643 3.8981 -1.1015 -4.0283 -0.5660 0.3983 1.8670 -4.2772 1.0891 4.1950 2.9741 -1.6343 1.2441 -0.4795 -0.4793 -3.9004 0.7297 -3.5648 2.0316 0.9327 -0.5718 3.1189 1.5200 -0.0405 2.3214 -1.9777 0.4066 -1.5388 3.3348 0.0863 0.4901 -4.4790 -4.9144 2.2478 0.6652 0.1983 -7.5163 -2.5119 0.8956 -6.2812 -2.7664 0.3800 -3.4060 -7.7049 -0.7056 -2.5248 -7.3074 3.4601 -0.7509 -5.0887 -0.8097 -7.5145 -1.6288 0.5475 -5.1551 -2.1291 2.4533 0.0249 -4.6528 1.6500 -3.1920 -7.3149 3.1940 -1.8374 -6.0095 -0.5072 -1.4604 -6.5078 -4.0738 1.5344 -1.1591 -5.2631 1.9625 -0.5769 -1.2522 -6.4063 -0.9474 -1.1177 -0.1569 6.3442 2.0702 -2.8714 2.2061 0.6163 5.5959 2.6565 0.3238 1.7879 3.3937 -0.8074 1.2304 4.2432 -0.0235 3.1734 2.8598 -0.8248 2.4946 -0.7717 0.5938 -2.7344 2.5354 -0.4412 -0.0479 4.9877 -0.5949 2.3140 -3.2415 -0.2837 -2.6525 1.2954 0.1273 2.7663 0.3800 -0.6662 -1.3048 4.1668 -3.0603 1.5762 -0.2766 -0.6080 -5.3036 -1.1906 1.0975 -0.1581 -5.1592 1.9454 -2.0525 -6.4602 0.8390 -1.1626 -6.0276
1.3460 1.1328 4.2092 -1.6846 -5.6473 -0.4112 0.4240 -6.2665 0.6724 -1.0684 -0.9497 3.9247 0.6969 -3.1233 -2.6375 -1.4659 -2.0368 0.0910 0.9167 3.1514 -0.7558 1.7247 -4.3801 4.6482 -1.2583 1.2885 -3.9163 2.1714 -3.1915 0.9579 1.1317 -0.0271 3.2674 -2.3489 -3.9431 -7.2472 -3.4251 -2.9599 -6.8399 -0.9895 -3.4475 -6.8047 -3.4090 -2.7291 -5.3436 -0.9647 -3.2391 -5.3063 -0.8792 -4.8429 5.8206 0.5807 5.1535 -2.0261 -2.0792 -2.1956 -3.3466 -3.0830 2.3346 -1.4466 -0.4688 -3.7254 5.0067 -4.3267 1.2289 0.4422 -1.4086 -0.1953 -2.1393 -0.9634 3.3359 -2.1077 0.2419 -2.8947 2.2108 1.7295 5.0104 -2.8560 -4.4254 1.5029 1.8063 -0.2049 -3.8414 9.8463 0.5430 -4.9252 9.2620 6.4571 6.8997 -2.7246 5.8619 5.6838 -2.1943 2.0814 8.3991 -4.1324 -1.0862 -3.1827 9.0814 0.3739 -5.2564 7.9753 1.5271 7.2496 -3.7119 5.7116 7.8732 -3.2783 3.5037 8.6216 -3.9711 4.5374 5.4487 -2.2516 -3.0916 2.9676 1.0238 -3.6982 2.5343 2.1979 -1.3505 -3.4726 7.7649 -0.5958 -5.1612 0.5157 0.4296 -1.1580 3.9814 -2.0459 -2.2741 -4.8574 -0.0426 -2.1964 -1.8533 -0.7959 -2.9447 -0.7643 -0.9230 -1.3857 -2.7952 -1.5994 2.1166 -1.6631 0.8891 -2.4960 3.4340 0.0835 -3.8998 0.0233 0.2223 3.7724 -1.5542 0.7740 -3.6358 4.4193 -1.3921 1.0561 -2.7198 0.9531 -3.2751 1.0919 -3.4449 2.1954 -0.0198 -0.6475 -4.4389 7.2515 2.3279 6.2441 -3.0234 4.2706 7.6954 -3.3691 3.6564 6.4427 -2.8573
-4.2022 -2.1915 3.6818 -0.5414 -1.7944 5.8822 -0.7116 0.6009 6.3504 -3.3732 -3.2221 0.2351 2.3866 1.5616 3.6979 -1.1192 1.3981 2.7536 -0.2820 3.3866 -3.9432 -0.8074 -4.2099 3.5297 2.6247 2.6800 -0.0356 1.1880 -1.6434 2.5426 -3.7966 -3.2503 2.6849 2.4274 8.1905 4.0042 2.7287 7.8688 2.5554 1.3096 7.3163 4.5327 3.0551 6.4009 2.3804 1.6561 5.8510 4.3733 -0.8361 -6.3242 1.5986 1.8172 2.5886 -4.7608 2.3370 4.0772 2.7810 -0.4420 1.7113 -1.0875 -0.7940 -4.9098 1.3224 -2.7831 1.4685 -0.2255 0.7189 3.3892 1.0817 1.3345 2.7076 -2.4175 -1.1262 -1.5805 2.6651 1.8540 1.2000 -5.0457 -3.9625 2.1837 -0.4271 2.3208 -8.2560 -0.3939 0.9926 -8.8058 -0.4893 -0.4724 -3.2211 -5.9974 0.6293 -2.8323 -5.1323 -0.8198 1.3415 -7.5601 2.5029 -7.1359 0.3182 -0.0440 -8.1947 0.0992 0.2177 1.7067 -6.7881 -1.1236 -2.3285 -6.7653 -1.2966 -0.0264 -7.5360 1.0573 -1.5590 -5.0462 -2.4807 3.1893 -1.5762 -3.8261 3.2248 -1.2285 1.5118 -6.4724 0.9982 -0.8053 -0.4418 5.2601 -2.9860 -2.6342 1.5678 1.9432 5.5273 2.9222 1.2634 1.7522 2.8476 0.0238 1.2703 3.5815 1.1329 3.2189 2.4584 0.5233 2.8721 -1.2318 -1.4835 -2.6677 1.7801 0.1532 -0.1501 4.1161 0.8262 2.9300 -3.6791 -0.9987 -3.9943 2.3366 1.4267 2.9429 -0.0197 0.1469 -1.2001 3.0191 -1.8484 2.1598 -0.9822 0.3146 -6.9652 0.8716 0.8184 0.7624 -5.8518 -0.6996 -0.9374 -6.7472 0.4194 -0.5298 -5.8618
4.3927 -2.6666 2.8534 -1.1848 -0.9171 5.9525 0.5706 0.4550 4.8676 2.1249 -2.9093 5.1037 -3.4752 -0.8637 1.5170 -1.0841 1.7092 2.4973 0.8188 1.1191 -1.3627 -0.6683 -5.0090 4.4052 -3.3302 2.5451 -2.1019 0.2278 -1.0004 1.7491 2.9212 -2.3323 2.8134 -8.4634 2.7382 0.0772 -7.5347 3.9257 0.2068 -7.7490 1.5934 -0.6077 -6.2886 3.5526 0.9822 -6.5162 1.1915 0.1746 0.5193 -7.3282 3.2886 1.1356 1.1027 -3.7407 -4.4389 1.9554 1.2973 -1.2919 4.6965 -2.1770 0.8967 -5.9665 2.9919 0.1590 6.7286 -2.4206 -2.3975 2.2902 0.0106 -0.5279 2.4467 -2.7165 -0.2302 -2.5631 3.4036 2.1545 2.0628 -3.9978 1.0606 7.3723 -1.5740 3.8691 -9.4623 4.6669 3.3176 -9.7897 3.3767 3.4275 3.4323 -8.7377 2.3328 3.8126 -7.8599 4.8983 0.1963 -5.4560 3.3013 -8.4774 5.3766 2.2736 -9.1081 2.8866 3.9234 0.5749 -4.6122 4.2973 2.4586 -8.4114 5.0239 0.8292 -6.7542 2.1404 3.2312 -6.6609 0.3309 5.7032 -0.4710 1.1976 6.7882 -0.3970 2.2095 -7.7484 4.9710 -0.8853 0.0546 4.8391 2.1327 -3.3123 3.6479 -5.5720 2.3611 0.3760 -2.5792 0.2223 1.3285 -2.0130 0.6513 2.6749 -3.3059 1.3008 0.5352 -1.0707 3.2842 -1.6772 0.7537 -3.5726 3.0604 -1.3674 -0.4617 3.4943 0.4878 1.5495 -2.4625 0.2284 -4.9026 3.5723 -2.3953 2.6649 -1.3168 -0.3641 -1.3438 2.7671 -0.2804 5.6477 -1.6688 1.7444 -8.0420 3.7925 2.9489 1.5795 -5.0133 4.1479 1.7760 -7.1355 3.0455 2.1736 -6.2245
0.7783 -6.1202 0.5759 4.6282 -2.9197 5.5737 5.6682 -1.2117 4.1668 -0.9672 -6.1782 3.2921 4.2511 -1.3554 0.9601 1.8982 0.0728 3.3431 -2.8978 0.4214 -2.3331 -0.9326 -2.0025 2.3944 0.9776 2.4850 -0.4994 1.5734 -2.1618 5.3628 -0.0373 -5.0581 1.2718 4.1137 5.3702 1.4724 4.8329 5.0883 0.1698 4.5425 4.4144 2.5653 4.8816 3.6143 -0.1875 4.4289 2.9549 2.1664 -3.5510 -2.8984 3.2107 -3.0005 2.6501 -3.2044 4.0736 1.3127 0.3157 0.5385 0.0260 -2.9713 -2.2750 -3.3914 3.6805 1.1304 -2.2276 -2.0262 1.9332 0.3805 -0.4468 -0.9970 1.7336 -2.1709 1.3488 -3.2330 3.3153 -2.0605 3.5319 -3.7884 0.5718 -3.4953 -2.1636 -6.8612 -5.2866 4.3100 -7.0886 -3.9557 3.8088 -0.2173 6.0832 -7.7326 0.2841 4.9887 -6.9183 -4.3594 5.9889 -5.2334 -5.5985 -5.7219 4.4166 -6.0578 -3.1707 3.4659 -3.9002 4.9810 -4.4692 -1.4460 6.6028 -7.5519 -3.5329 6.5455 -6.2880 -0.4557 4.4271 -5.9456 -0.5435 -2.2317 -3.4695 -0.4311 -3.5453 -3.0220 -4.4833 -4.9936 4.0782 4.3553 -1.6752 4.7602 0.0735 -5.2164 2.7710 4.0150 2.7685 0.7220 3.0466 -0.7526 1.4065 3.0789 -0.5848 2.9146 2.8003 0.5756 0.6963 -0.0774 0.6923 -1.7530 0.0745 -3.9006 3.5316 3.2999 -1.8919 3.6793 -2.3036 1.4782 -2.5370 -1.0747 -2.9846 3.1181 0.9881 1.3081 -0.8519 1.9972 -2.4466 4.2468 0.3762 -1.4421 -2.8866 -4.7014 -3.7881 3.6386 -2.5916 4.3909 -4.7287 -2.3072 6.0429 -6.5206 -1.8104 4.9117 -5.7013
-3.5003 1.6305 4.9149 3.1852 -4.1143 3.5145 1.8695 -4.0681 5.5720 -1.9613 0.6921 2.2867 3.2355 0.6134 4.0877 1.9667 -1.8757 1.7363 -0.6027 3.2474 -1.3541 -1.5293 -2.7325 1.5816 3.3340 2.1163 -0.9690 0.2675 -1.2643 5.7218 -2.3326 0.6918 4.7380 7.6026 3.3795 0.4710 7.5460 2.0821 -0.3107 6.2259 3.8300 0.9154 6.8091 1.0014 0.4560 5.5221 2.7341 1.6890 -4.1906 -3.7074 1.7833 -0.1612 3.7698 -3.6606 4.6091 0.3936 1.4813 1.4576 -0.2566 -2.2519 -3.4916 -2.9261 2.7804 0.8257 -2.5023 -1.3310 2.3354 0.6481 0.5386 1.0814 2.1224 -2.4823 -0.3408 -1.3540 3.4973 -1.5700 3.7163 -3.8657 -0.3965 -3.1355 -1.1170 -3.4802 -7.7756 2.5763 -2.9340 -7.1984 1.3744 -4.0547 2.8735 -8.2190 -3.4706 1.9893 -7.2235 -2.3796 6.6928 -5.7685 -4.1929 -6.9938 3.3988 -3.1184 -5.9010 1.0942 -1.8175 5.8868 -4.8512 -3.9297 4.2114 -8.1447 -3.0896 6.1257 -6.8976 -2.7527 2.4564 -6.1849 -0.8814 -1.2055 -1.8734 -1.4459 -2.3920 -1.4204 -4.4591 -5.6649 3.1795 1.9383 -3.5463 4.1542 -2.4709 -0.1120 3.4647 5.4295 1.4870 0.8377 2.5481 0.1511 2.9318 2.5538 -1.3725 2.9248 3.1692 0.8246 1.7098 1.2403 1.0525 -1.5273 -1.7815 -1.4608 3.6210 1.9007 -2.0262 4.1375 0.0538 3.0328 -2.3677 -2.2308 -2.4204 2.5392 2.4284 1.3562 -0.6443 0.5305 -1.5130 4.5472 0.4618 -1.2580 -1.8211 -3.9348 -5.1568 2.1035 -1.8961 4.4390 -4.9906 -3.1740 4.7915 -7.0458 -2.5562 3.8949 -6.0382
0.2224 -3.1682 7.6964 -4.3977 -3.3113 4.0090 -4.0074 -0.8860 4.3202 -0.7869 -5.0839 5.3397 -2.6369 -2.4816 -0.7101 -3.8494 0.1783 1.4620 1.2531 2.5457 -0.5876 0.4728 -4.5094 2.0781 -2.0279 1.8639 -3.0928 -1.1115 -0.8673 2.4401 -0.5020 -2.8539 6.4084 -5.4743 -0.3823 -6.0999 -5.8981 0.7850 -5.2322 -4.1159 -0.9059 -5.6810 -5.8774 0.4101 -3.7633 -4.0987 -1.2731 -4.2107 3.2601 -4.0798 2.4799 1.9458 4.0614 -2.3080 -4.4569 -0.4182 -1.8878 -2.5289 4.2712 -0.9769 2.1979 -3.5685 3.3106 -3.6015 4.7348 1.2500 -2.7842 1.1562 -1.0165 -0.3572 3.6323 -1.8568 -1.3559 -2.9840 3.3582 2.4617 3.1125 -3.2384 -3.1737 5.4178 2.3885 5.9030 -6.3125 4.8650 6.3537 -5.0610 4.3119 7.1166 1.6110 -4.6792 6.1632 1.0949 -3.7100 4.1706 5.3441 -5.5517 4.6481 -6.7101 4.6156 5.5293 -4.2997 3.5802 3.2637 4.8638 -4.6848 6.9096 2.7690 -5.3324 5.4175 4.6394 -5.7651 5.0178 1.7392 -3.4164 -1.5646 5.5579 1.0025 -1.9581 5.9250 2.2844 3.7455 -6.0161 3.8472 -4.2478 -1.9830 3.3096 -0.0354 -3.7737 5.3076 -4.5043 -0.0858 -3.3631 -2.7081 -1.1623 -0.1901 -3.6425 -1.1497 1.0119 -3.0558 -0.2245 -1.3389 -1.5060 3.1610 -1.1144 -0.0429 -3.0755 3.9587 -3.2212 -2.0334 2.1863 0.9316 3.3212 -1.4820 0.8716 -3.8045 3.0004 -2.1113 2.0037 -1.8766 -1.7856 -1.8684 2.6614 -2.5230 4.8433 0.3854 4.1649 -4.8783 3.3775 3.5392 3.6603 -3.9076 5.6875 3.5163 -5.0767 4.7016 2.9926 -4.0957
5.2360 -2.2323 0.9492 -3.3870 -3.8478 0.0119 -1.5668 -5.2309 0.8902 2.7372 -0.3924 0.5438 0.0547 -2.5155 -3.0895 -1.8327 -1.0512 -0.3508 -1.2241 1.5139 0.8943 0.1758 -0.5031 2.9669 -0.7102 2.5224 -3.4110 1.2895 -3.9603 -0.4212 3.7838 -2.6294 0.8476 -0.9192 -1.5170 -8.4903 -1.8467 -0.3695 -8.1529 0.2248 -1.5746 -7.5011 -2.3875 -0.5083 -6.7455 -0.3053 -1.7390 -6.0951 1.2817 -1.1945 5.5191 -0.1800 3.5644 1.5159 -1.8907 -0.9489 -4.3747 -3.0911 3.7799 -2.1024 1.6219 -1.7856 4.2482 -5.5275 3.3053 -2.5089 -1.7838 0.6405 -2.5664 -1.2167 3.2656 -0.6288 0.5648 -2.1787 0.8742 1.0029 4.0986 0.9524 -6.6511 3.3187 -1.6828 -0.5504 -4.2788 7.6979 -1.3705 -3.2128 7.1804 5.4895 2.7992 -1.0391 4.2828 3.3907 -1.5937 3.3388 2.5181 3.2834 0.7713 -4.2374 7.4817 -0.8262 -2.2103 6.4781 2.2302 3.0976 2.7926 5.5701 2.4160 0.2482 4.4732 2.2683 2.4164 3.1774 3.5852 -0.8514 -5.0070 3.8071 -0.4192 -6.3831 3.6097 -0.4219 1.4199 -3.2419 6.7934 -1.9517 -3.8254 0.4844 2.8942 -1.5787 1.4669 -1.2758 -0.6342 -5.7210 -0.5058 -1.4660 -2.3145 -1.4929 -2.0439 -1.3081 -1.0453 -0.3891 -3.2523 -2.2031 2.7060 -1.5175 1.5712 -2.1829 1.9095 -1.0049 -3.2938 -0.5797 -0.9114 2.6550 0.5684 1.0222 -1.3861 3.0715 -1.4595 1.9793 -2.6076 0.4072 -3.1951 -0.0400 -4.4874 3.6190 -1.6458 0.6563 -2.3091 6.3059 2.1201 3.4017 1.3704 4.4180 2.6024 1.1145 3.1798 3.1998 0.5562
5.2531 -2.0922 0.5298 -3.2233 -4.5684 0.4655 -1.1877 -5.8940 0.1717 2.5147 -0.4012 0.5625 -1.9436 -2.6008 -2.9903 -1.8135 -1.2991 0.4152 0.4942 2.1297 0.0761 0.3580 -1.1597 3.2557 -2.7965 2.2323 -3.2123 1.2141 -3.8357 -0.8062 3.8125 -2.5121 0.3747 -7.4183 0.1316 -4.9064 -7.5069 0.6068 -3.4705 -5.9859 0.1452 -5.3981 -6.6117 -0.2183 -2.5682 -5.1002 -0.6871 -4.4949 1.9229 -1.9484 5.5091 1.6268 3.7433 -1.2783 -4.2861 -0.9961 -2.1618 -2.9722 4.0309 -0.8134 2.1455 -2.3383 4.1371 -1.9783 4.9534 1.3062 -2.6331 0.6666 -1.5004 -0.7179 3.3458 -1.4872 0.5936 -2.4468 0.9352 2.4520 2.7934 -1.9482 -2.4603 5.0879 2.6062 0.2426 -5.3095 7.3825 -0.5846 -4.1492 7.1685 7.3129 1.2855 -1.7611 6.0929 0.7720 -1.1618 4.8394 5.0600 -3.4964 1.5211 -5.2706 6.9838 -0.0909 -3.0582 6.5680 3.6928 4.5660 -3.0012 7.3380 2.4530 -2.4289 6.0842 4.3491 -3.2907 4.9163 1.4192 -1.2576 -4.0560 4.2197 1.4897 -3.7020 4.6634 2.7610 2.1214 -4.1891 6.3884 -1.7139 -4.5208 0.5250 2.9243 -1.6760 1.2628 -5.1838 -0.1872 -3.0683 -1.8276 -1.6032 -1.9829 -1.9837 -2.2491 -0.6184 -2.8524 -0.5208 -2.2872 -2.0058 2.8881 -1.0274 1.7575 -2.4956 1.7911 -1.1226 -3.4833 -0.4075 0.4274 2.9719 -0.8139 1.3173 -1.9136 3.1183 -2.5203 1.9231 -2.0588 0.3533 -3.2772 -0.1308 -3.0423 4.3832 0.6211 1.3483 -3.1657 6.1767 3.6904 3.3513 -2.1946 6.1054 3.2121 -2.5732 4.8483 2.6826 -1.9848
4.0096 -1.6293 6.6812 1.7323 -6.9717 0.2869 2.6648 -6.9030 2.5461 3.4480 -0.7762 3.7235 2.9879 -3.3854 -0.5470 -0.3927 -3.9031 0.7329 0.1796 2.3330 0.4997 0.1206 -0.5988 2.4994 0.6929 0.0144 -2.8329 0.8865 -4.8262 3.8728 3.1906 -2.3465 5.6357 1.3374 -4.1108 -6.6525 -0.1017 -3.9029 -6.2337 2.2455 -3.1726 -5.8872 -0.2662 -4.1077 -4.7428 2.1071 -3.3941 -4.3951 -1.2773 0.6666 4.6772 -0.4545 4.1864 -0.8730 0.5393 -3.6119 -2.4749 -2.4412 0.2349 -2.0926 -0.4876 -0.5407 4.7350 -4.5035 -0.5419 -0.8812 -0.0129 -1.5501 -1.2705 -0.7746 1.9181 -1.5735 1.6116 -2.8329 2.9599 0.2971 4.4717 -2.0453 -5.5092 0.1328 -0.1903 -5.2526 -0.5551 4.0773 -4.5609 0.1164 3.0083 3.6634 8.0244 -3.4329 3.8004 6.6654 -2.9352 -1.1304 7.7204 -2.8717 -4.6037 -0.7565 5.2318 -3.2880 0.5079 3.1484 -1.0228 6.4470 -2.4569 2.4677 8.6365 -3.5121 0.0577 8.4746 -3.2168 2.7404 5.9385 -2.5350 -4.1244 1.6342 -0.7904 -5.3173 1.4374 -0.1045 -3.3129 -0.3604 5.4822 1.5979 -6.3219 1.6446 2.4850 -1.3588 4.7345 0.6707 -3.2289 -3.9351 1.6402 -3.0406 -0.2552 0.9411 -4.2293 0.3884 1.0189 -2.5207 -1.5413 -1.1532 0.5394 -1.3540 1.2718 -2.0100 4.0972 1.6993 -4.8033 1.5849 -0.3031 2.7222 -0.5588 0.2641 -0.9715 3.6596 -0.0506 -0.3285 -1.9183 1.3292 -4.1816 2.9257 -3.6258 0.4690 -1.2415 -2.6982 0.2117 4.4895 0.2873 5.8323 -2.2750 1.2749 7.9148 -3.0975 1.4042 6.5227 -2.5982
2.0859 -3.8971 6.6050 2.2616 -0.4604 -1.6775 3.7232 -2.1417 -0.6716 0.8739 -1.3872 5.0018 3.8734 2.1617 0.8290 0.6062 0.6802 1.4315 -0.1518 1.2425 -2.1210 -0.9583 -2.8436 2.0458 -0.8068 4.4386 0.9204 3.7173 -1.4620 2.7127 2.4044 -3.3193 5.2475 1.8155 8.0908 3.9403 1.9784 8.1635 2.4362 1.1411 6.8007 4.3613 2.7045 6.9473 1.9048 1.8814 5.5950 3.8226 -1.5435 -5.5570 2.7101 -2.5104 0.8163 -2.2875 2.7518 4.4918 1.7756 -1.0074 5.2517 -1.9603 -0.2627 -4.9003 2.8422 0.4694 6.7486 -3.3418 1.2085 3.5909 0.1166 -1.6160 2.9167 -1.5076 1.4624 -1.8287 2.3292 -2.0844 -0.5348 -2.0915 0.9119 6.6927 -4.6634 -1.5633 -7.4559 -1.0387 -2.4370 -6.3303 -0.8284 -2.1532 -4.7768 -4.9250 -1.1863 -3.6999 -4.7820 -5.1668 -2.4277 -1.9640 -0.7704 -7.8518 -0.0341 -2.4472 -5.6815 0.3439 -4.2927 -1.4165 -1.8306 -3.3564 -4.7325 -4.3245 -4.8558 -3.5486 -2.8245 -1.4434 -2.5942 -4.0565 -0.2506 4.9338 -4.3770 0.5066 5.6201 -5.3192 -0.7381 -7.2729 1.2102 2.5010 -1.2831 -0.4351 1.1449 -2.8162 4.5845 1.9914 5.6758 2.3149 2.6032 2.0221 1.4491 1.8742 0.8469 0.8328 1.8364 3.3431 1.3966 -0.5698 3.9091 -1.4220 1.2248 -3.0401 3.0814 2.6924 -0.4337 0.8046 -1.2992 1.6545 -1.9674 -0.1167 -3.5494 2.5961 -0.1064 4.0116 0.0084 2.6933 -1.2813 2.0598 -0.2714 5.5848 -3.1994 -1.5169 -6.2443 1.3722 -3.0310 -1.4208 -2.5581 -3.7001 -3.5769 -3.5110 -2.7251 -2.4642 -3.3678

>  <OB_ATOM_TYPES> (1hivB1)
C.3 C.3 C.3 C.3 O.3 O.3 O.2 O.2 O.2 O.2 C.3 C.3 C.3 C.3 C.3 C.3 C.3 C.3 C.3 C.3 N.am N.ar N.am N.am N.am O.3 C.ar C.ar C.ar C.ar C.ar C.ar C.ar C.ar C.ar C.ar C.ar C.ar C.ar N.ar N.ar C.3 C.3 C.3 C.3 C.3 C.3 C.3 C.3 C.3 C.2 C.2 C.2 C.2 C.ar C.ar C.ar C.ar C.ar

>  <ENSEMBLE_RMSD> (1hivB1)
3.686 3.744 3.769 3.820 3.875 3.899 3.905 4.071 4.118 4.123 4.147 4.179 4.231 4.270 4.282 4.317 4.336 4.353 4.361 4.388 4.414 4.421 4.430 4.455 4.499 4.534 4.548 4.551 4.557 4.621 4.636 4.648 4.674 4.679 4.826 4.843 4.950 5.004 5.008 5.018 5.038 5.042 5.054 5.071 5.085 5.214 5.343 5.364 5.398 5.991

$$$$
