
 OpenBabel03071213D

 41 44  0  0  0  0  0  0  0  0999 V2000
   17.4080    4.3540    0.2220 C   0  0  0  0  0
   19.9170    4.3570    0.5260 C   0  0  0  0  0
   21.6500   -0.0540    0.0440 O   0  0  0  0  0
   20.0010    3.3940    5.8350 O   0  0  0  0  0
   17.5570    7.6270    4.8440 O   0  0  0  0  0
   17.1220    1.3050    1.7020 O   0  0  0  0  0
   20.3880    0.0370   -0.5970 C   0  0  0  0  0
   19.6500    8.7030    6.2390 C   0  0  0  0  0
   19.1970   -1.2060    1.3200 C   0  0  0  0  0
   18.2710    2.4920    7.2150 C   0  0  0  0  0
   19.5100    7.3020    5.8370 N   0  0  0  0  0
   17.4500    3.7180    3.2440 N   0  0  0  0  0
   19.2830    1.2850    1.1750 N   0  0  0  0  0
   18.0550    4.4920    5.8910 N   0  0  0  0  0
   18.3550    5.8670    2.1630 S   0  0  0  0  0
   18.0980    9.7760   10.0850 C   0  0  0  0  0
   18.2030   -4.8560   -0.7260 C   0  0  0  0  0
   18.4150   -1.3290    5.3570 C   0  0  0  0  0
   19.4510    9.8560    9.8350 C   0  0  0  0  0
   17.2430    9.3340    9.0970 C   0  0  0  0  0
   19.5250   -4.4950   -0.5790 C   0  0  0  0  0
   17.2110   -4.0550   -0.2240 C   0  0  0  0  0
   19.0570   -1.1300    6.5620 C   0  0  0  0  0
   17.7190   -0.3100    4.7600 C   0  0  0  0  0
   19.9470    9.4960    8.5990 C   0  0  0  0  0
   17.7420    8.9760    7.8590 C   0  0  0  0  0
   19.8590   -3.3270    0.0720 C   0  0  0  0  0
   17.5550   -2.8900    0.4210 C   0  0  0  0  0
   19.0210    0.0980    7.1770 C   0  0  0  0  0
   17.6780    0.9130    5.3720 C   0  0  0  0  0
   19.2390    0.0440    0.4170 C   0  0  0  0  0
   17.5490    5.1160    3.5890 C   0  0  0  0  0
   18.4590    5.3740    4.7890 C   0  0  0  0  0
   18.4580    3.2440    2.2930 C   0  0  0  0  0
   18.8590    3.4980    6.2450 C   0  0  0  0  0
   18.4600    6.8680    5.1520 C   0  0  0  0  0
   18.2080    1.8540    1.7090 C   0  0  0  0  0
   19.0980    9.0560    7.6010 C   0  0  0  0  0
   18.8680   -2.5060    0.5820 C   0  0  0  0  0
   18.3280    1.1290    6.5770 C   0  0  0  0  0
   18.5650    4.3310    1.2190 C   0  0  0  0  0
  1 41  1  0  0  0
  2 41  1  0  0  0
  3  7  1  0  0  0
  4 35  2  0  0  0
  5 36  2  0  0  0
  6 37  2  0  0  0
  7 31  1  0  0  0
  8 11  1  0  0  0
  8 38  1  0  0  0
  9 31  1  0  0  0
  9 39  1  0  0  0
 10 35  1  0  0  0
 10 40  1  0  0  0
 11 36  1  0  0  0
 12 32  1  0  0  0
 12 34  1  0  0  0
 13 31  1  0  0  0
 13 37  1  0  0  0
 14 33  1  0  0  0
 14 35  1  0  0  0
 15 32  1  0  0  0
 15 41  1  0  0  0
 16 19  1  0  0  0
 16 20  2  0  0  0
 17 21  2  0  0  0
 17 22  1  0  0  0
 18 23  2  0  0  0
 18 24  1  0  0  0
 19 25  2  0  0  0
 20 26  1  0  0  0
 21 27  1  0  0  0
 22 28  2  0  0  0
 23 29  1  0  0  0
 24 30  2  0  0  0
 25 38  1  0  0  0
 26 38  2  0  0  0
 27 39  2  0  0  0
 28 39  1  0  0  0
 29 40  2  0  0  0
 30 40  1  0  0  0
 32 33  1  0  0  0
 33 36  1  0  0  0
 34 37  1  0  0  0
 34 41  1  0  0  0
M  END
>  <MOLID> (1htfB1)
1htfB1

>  <SMILES_CANONICAL> (1htfB1)
OC[C@H](NC(=O)[C@@H]1N[C@H](SC1(C)C)[C@@H](C(=O)NCc1ccccc1)NC(=O)Cc1ccccc1)Cc1ccccc1	

>  <FINGERPRINT> (1htfB1)
0000000000000000000000000000000001000110100000000111010000000000001000000001011001000001000000000000110000110001000001100100000000000000000000000000000010000000000000000000000000000000000000000000000000100000000000000000000000100010000000000001000000001100000000000000000000001000100000000000101000001111010010011110000000001000001100000000000000000000010000000000010010110000000000000000111100000001111010000000011000000000000011000010000100000001110000000001100000000100000000000000000001001000000000000000100000010100000000000000010000000000000000100000000000000010000000000000000001000000000000000001000000000000010000000000001100001001110000000000000000000001000000000011100000100000100001100000000000000011000000000000001101000011100001110100000000000000000110000000000000000000000100100000000011000000000000000000000000000000000000000000000001000000000000001001000000000000000000000000000000001100000000000000000100000000000000000000011000000000001100110010000000000100011000000001000000000011000000010010011010000000

>  <MACCS166> (1htfB1)
000000000000000000000000000000000001000000000010010011000000000001000000010100111110000101110011101000010001111100001001100010000011000111111100110011101111111110111000

>  <OB_MW> (1htfB1)
574.261

>  <OB_logP> (1htfB1)
4.0613

>  <OB_PSA> (1htfB1)
144.86

>  <OB_MR> (1htfB1)
165.272

>  <OB_ATOMIC_CHARGES> (1htfB1)
0.012783147 0.012783147 -0.2184903851 -0.27296367 -0.2713926442 -0.2718079734 0.2038985032 0.1415231011 0.0506873451 0.1131055738 -0.1990489626 -0.1975806295 -0.2029536748 -0.1950974569 -0.1212562218 -1.86687e-05 -2.00181e-05 -1.9755e-05 -0.000268247 -0.000268247 -0.000321828 -0.000321828 -0.0003103671 -0.0003103671 -0.0025538587 -0.0025538587 -0.0042099873 -0.0042099873 -0.0037837612 -0.0037837612 0.1325397507 0.1491911471 0.1986544112 0.1603564918 0.2462643853 0.2638464961 0.2580783741 -0.0005611197 -0.0203760906 -0.0130311356 0.063802631

>  <MCT_HBD> (1htfB1)
5

>  <MCT_HBA> (1htfB1)
8

>  <ENSEMBLE_TOTAL> (1htfB1)
50

>  <ENSEMBLE_COORDS> (1htfB1)
-0.0979 1.8802 -3.5813 2.0569 0.8332 -2.9060 -0.6525 -2.8261 -6.4892 0.3260 0.5536 3.5510 -2.1235 3.6972 1.7728 -1.8780 -0.9348 -2.8934 -0.0915 -1.9415 -5.5320 -0.0226 5.6563 2.0191 1.2153 -3.6287 -4.3025 -1.5853 -0.8609 3.2174 0.1334 4.2308 1.8701 -1.1127 0.7071 -0.8641 0.2852 -1.7217 -3.1448 -1.2433 1.1055 1.9266 0.8750 2.4826 -1.1616 1.3351 6.6531 5.9508 1.2164 -6.8462 -1.4828 -0.6756 -4.0928 0.5641 2.2801 6.3142 4.9030 0.0166 6.6789 5.6877 2.0019 -5.7772 -1.2609 0.3530 -6.8837 -2.6496 -0.0148 -4.0036 1.7322 -1.6736 -3.1006 0.2133 1.8390 6.0322 3.6648 -0.4645 6.3545 4.3571 1.9909 -4.6642 -2.1922 0.3394 -5.8518 -3.5121 -0.3016 -2.9138 2.6468 -1.9470 -2.0955 1.0631 0.0428 -2.6701 -4.2103 -0.6526 1.9836 -0.3317 -0.4524 2.0492 1.1736 -0.0551 0.1487 -1.7110 -0.7011 0.3211 2.9221 -0.9409 3.3988 1.6407 -0.6795 -0.8768 -2.6365 0.4111 6.0328 3.3880 1.1809 -4.6924 -3.2662 -1.2153 -1.9834 2.3159 0.6824 1.2524 -2.4520
-0.4700 2.2617 -3.0166 1.8673 1.4299 -3.1078 -0.0262 -0.8640 -6.0358 2.4737 -0.6238 2.5131 2.7414 2.9531 2.5785 -1.7648 -0.6170 -2.1903 -0.9633 -1.4527 -5.1495 0.8935 4.9642 3.2618 -1.1084 -3.3304 -3.5393 0.4961 -1.3886 3.6376 0.5453 3.6698 2.7251 -0.4720 0.7878 -0.2454 0.2642 -1.3747 -3.0205 0.5481 0.6756 2.4414 1.1175 2.8216 -0.9396 -2.3352 7.7674 3.3738 0.8167 -7.0994 -2.9077 -1.1628 -4.4937 1.1951 -1.7611 7.3484 2.1082 -1.8758 7.2480 4.5261 1.1556 -6.0576 -2.1275 -0.1789 -6.9316 -3.9516 0.0989 -4.6236 1.6432 -1.9470 -3.3285 1.5625 -0.7728 6.4363 2.0854 -0.8067 6.2650 4.5019 0.5254 -4.7667 -2.3315 -0.7470 -5.7296 -4.1557 0.6827 -3.5875 2.4766 -1.4059 -2.3662 2.3304 -0.2209 -2.2306 -4.0851 0.1478 1.9748 0.3468 1.0748 1.6301 1.4993 0.2983 0.4083 -1.4338 1.2939 -0.4328 2.7928 1.5470 2.8119 2.3181 -0.5386 -0.5690 -2.2355 -0.2983 5.8470 3.3279 -0.3681 -4.5997 -3.3239 -0.0279 -2.4849 2.7793 0.6637 1.6519 -2.2280
1.8097 -0.0772 -2.7283 1.9903 -1.9395 -1.0880 -3.3004 -4.0903 -1.8583 0.9382 1.4566 4.0124 -1.7758 3.3418 1.2405 -1.5642 -0.3491 -2.9773 -3.0592 -3.3268 -3.0308 -0.3215 5.8022 1.1982 -0.9293 -4.5453 -3.4639 -0.6439 -0.3469 3.9440 0.2483 4.4752 1.2557 -0.4994 0.8699 -0.7970 -0.9359 -2.4406 -2.2095 -0.3809 1.1546 2.1232 2.0884 0.5723 -0.1445 -0.1241 7.6923 5.0361 1.5967 -4.9245 -6.9013 1.2032 -4.0042 2.7078 -1.2311 6.8191 4.6923 0.8619 7.9123 4.1486 2.1497 -4.6655 -5.7028 0.1551 -5.0463 -7.0239 0.2470 -3.4631 1.9317 1.5997 -3.3464 3.9396 -1.2739 6.2303 3.4838 0.8178 7.2770 2.8434 1.3052 -4.5129 -4.5319 -0.6293 -4.8998 -5.9404 -0.3879 -2.2198 2.3274 1.0205 -2.1882 4.3021 -1.5705 -3.1852 -3.2752 0.5885 1.5699 -0.1235 0.2976 2.0954 1.2695 -0.0771 -0.5114 -1.0642 0.0880 0.8401 3.3793 -0.5483 3.3468 1.2387 -0.9362 -1.0570 -2.1936 -0.1979 6.4523 2.5296 -0.0326 -4.6005 -4.6472 -0.0015 -1.5950 3.4556 1.4152 -0.5727 -1.3577
-0.9365 -1.7218 0.2157 -2.8250 -1.7042 -1.4004 2.3630 -0.8614 -4.9889 0.9652 -0.0826 3.1026 2.0233 2.6336 0.4607 1.3083 -1.1883 -1.9083 1.1824 -1.4802 -5.4764 1.2401 5.1295 1.5068 -0.0718 -3.5874 -5.0410 -0.8852 0.5023 4.5217 0.4262 3.9372 1.5146 -0.2284 1.0119 -1.2577 -0.2524 -1.6968 -3.5434 -0.5963 1.4738 2.3669 -2.4523 0.4761 0.1290 0.6072 7.8604 4.7341 2.4002 -6.7279 -6.5901 -2.9233 -3.2565 4.7929 1.4238 6.6740 4.9157 -0.0157 8.0753 3.5619 2.0296 -5.7222 -7.4027 1.9805 -6.7286 -5.1998 -1.6577 -3.1681 5.2401 -3.5814 -2.0865 4.2395 1.5614 5.7898 3.9110 0.1465 7.1298 2.4715 1.2050 -4.6432 -6.8892 1.2283 -5.7212 -4.7199 -0.9498 -1.9028 5.1650 -2.9230 -0.9165 4.1598 0.6554 -2.4163 -4.4100 -1.0084 1.5476 -0.1335 -0.0453 1.5937 1.0454 -0.8894 -0.1687 -1.8177 -0.0655 0.5646 3.2611 0.9123 2.7641 0.9734 0.1930 -1.0535 -2.4051 0.8821 6.0160 2.6441 0.8404 -4.6254 -5.5936 -1.5456 -0.8272 4.6168 -1.7216 -0.8927 -0.7725
0.0280 -2.2130 -0.5548 -1.8736 -1.6903 -2.0690 2.2174 0.0392 -6.4522 1.4930 -0.3266 3.5173 2.3559 2.6379 1.0702 2.2571 -0.8279 -2.3293 2.6567 -0.9725 -5.5596 1.1746 4.8460 2.3629 0.5903 -2.2919 -6.0039 -0.5596 -0.1120 4.7566 0.4984 3.6104 2.0448 0.6123 0.8555 -0.9252 0.7258 -0.8045 -4.0632 -0.2309 0.9738 2.6605 -1.5932 -0.2039 0.1455 -1.5354 8.0129 3.3236 -0.8898 -6.1762 -5.0009 -1.5301 -4.2813 4.9560 -1.3096 7.6214 1.9442 -0.9038 7.3666 4.3197 0.2843 -6.0804 -5.6511 -1.6214 -4.9755 -4.6401 -0.4175 -3.8404 5.5700 -2.4035 -3.3425 4.2742 -0.4746 6.6061 1.6604 0.0018 6.2732 4.0140 0.8212 -4.7742 -5.9926 -1.1245 -3.7666 -4.9532 -0.0814 -2.4285 5.5332 -2.0878 -2.0357 4.2312 1.4720 -1.6816 -4.9368 -0.3621 1.1331 0.1359 0.4405 1.2554 1.4215 0.0017 -0.0407 -1.9060 0.3567 0.1325 3.5863 1.2047 2.5605 1.4982 1.1273 -0.6014 -2.7565 0.1856 5.8866 2.7384 0.1511 -3.6618 -5.6402 -0.8626 -1.5652 4.8571 -0.7951 -1.1166 -1.1870
-0.1775 -1.9495 0.3171 -2.3662 -2.1341 -0.8452 2.7764 -1.6723 -4.6155 1.7441 -0.4104 2.9589 2.0880 2.7381 0.3716 1.4336 -0.9521 -2.0001 1.4814 -1.4982 -5.1688 1.2606 5.0545 1.7362 -0.4277 -3.0828 -5.2827 0.2982 0.1048 4.8035 0.5543 3.7960 1.7430 -0.2895 0.9890 -0.9735 -0.2691 -1.4518 -3.4967 0.0875 1.2008 2.6952 -1.9986 -0.0523 0.8024 -0.7294 8.2235 3.8001 1.2651 -6.5309 -7.1882 -2.5846 -3.0554 5.0441 0.2254 7.3704 4.4839 -1.0355 7.9941 2.5107 1.3221 -5.3427 -7.8159 0.6432 -6.6301 -5.8796 -1.2787 -3.3569 5.1596 -2.9985 -1.6747 4.8705 0.8022 6.3462 3.8303 -0.3966 6.9020 1.7977 0.7630 -4.1614 -7.1824 0.1422 -5.5326 -5.2843 -0.2817 -2.3035 5.0877 -2.0762 -0.6985 4.8035 0.5045 -2.3235 -4.3574 -0.8585 1.2859 0.3489 0.3300 1.4130 1.2939 -0.8324 -0.2671 -1.4961 0.7959 0.2390 3.3895 1.0903 2.7052 1.0908 0.2535 -0.9062 -2.3392 0.4662 6.0922 2.4385 0.2195 -4.2443 -5.9533 -0.6621 -1.0288 4.8817 -1.2846 -1.1946 -0.3805
-0.2792 2.4663 -4.7936 2.0325 1.5591 -4.5331 -2.9601 -3.5387 -5.5075 2.0830 -0.2522 1.2474 1.7033 3.4429 1.0170 -0.5107 -0.3774 -5.2500 -2.6911 -2.6112 -4.4670 -0.6916 4.3876 2.2384 -1.2445 -3.9877 -3.0189 0.0741 -1.2762 2.0628 -0.5444 3.1596 1.4916 -0.8090 0.9917 -2.1450 -0.7875 -1.6204 -3.3213 0.0212 0.5549 0.5340 0.9648 2.9595 -2.4982 -0.3621 3.8943 6.4835 2.3788 -6.2889 -2.9102 -0.5091 0.0245 6.1018 0.7689 3.6175 5.6174 -1.5418 4.2613 5.9517 1.5410 -6.3014 -1.8581 2.0610 -5.4868 -4.0780 -1.4841 0.2369 5.2001 0.7335 -0.6062 5.6940 0.6409 3.7375 4.2840 -1.6787 4.3932 4.5111 0.3255 -5.5091 -1.8908 0.9269 -4.7649 -4.1130 -1.2997 -0.1795 3.8212 0.9051 -0.9936 4.4178 -1.2717 -2.8160 -3.9781 -0.2351 2.1220 -1.4077 0.5245 1.7184 -0.1512 0.1897 0.5733 -3.1345 0.8559 -0.2740 1.2573 0.6343 2.8610 0.8392 -0.4181 -0.4908 -4.0299 -0.6395 4.1159 3.7023 0.0276 -4.7584 -2.9679 -0.1430 -0.7522 3.4384 0.7085 1.8085 -3.8571
-0.9833 -1.3691 -0.5378 -2.3120 -1.5809 -2.6313 1.9430 0.0737 -6.2744 -0.3298 0.2978 3.1940 -1.8632 3.7951 1.9569 1.4620 0.5202 -1.9511 2.5357 -0.1236 -5.0010 0.6715 4.8166 1.0887 2.7118 -1.8877 -3.2703 -2.5013 -0.6539 3.5576 0.2188 3.4502 0.9886 -0.9098 1.7020 -1.4504 0.5647 -0.7139 -3.6949 -2.1301 1.0746 1.9500 -3.0688 0.2612 -0.8398 3.3467 5.3197 4.3932 1.4091 -5.7172 -1.8556 -2.6626 -4.4239 1.5242 3.8162 5.4391 3.0246 2.0557 5.0369 4.6413 0.9900 -4.6067 -1.2236 2.3018 -5.6095 -2.9965 -3.7315 -3.6083 1.4876 -1.4768 -4.0339 2.2653 2.9628 5.2584 2.0005 1.1292 4.8688 3.5377 1.4348 -3.3049 -1.6840 2.6939 -4.4002 -3.4377 -3.6907 -2.3278 2.1705 -1.4437 -2.8543 2.9101 1.7901 -1.2239 -4.2792 -2.0201 1.6971 -0.4899 -1.3639 1.6798 0.8884 -0.9430 0.4969 -2.2840 -1.5164 0.2624 2.8818 -1.0693 3.0919 1.3393 0.4967 0.1248 -2.5992 1.5682 4.9482 2.2676 2.2178 -3.1988 -2.7729 -2.5798 -1.9485 2.8287 -1.7245 -0.6286 -1.6230
-0.4032 -1.9948 0.4210 -2.5467 -2.1177 -0.8292 2.1406 -0.6897 -5.2534 1.4646 -0.5710 3.2138 2.2804 2.3253 0.5839 1.3107 -1.1240 -1.9920 0.7858 -1.0319 -5.5006 1.4579 4.8382 1.6023 -0.3965 -3.1981 -5.2003 -0.0816 0.1418 4.9081 0.6939 3.6164 1.6720 -0.2963 0.8972 -0.9343 -0.4337 -1.5098 -3.4692 -0.0420 1.1376 2.7478 -2.1413 0.0003 0.7797 -0.3928 8.1914 3.5044 1.9832 -6.1682 -7.1665 -2.7971 -3.1413 5.3484 -0.9515 7.6262 2.2898 0.6827 7.6238 4.0785 1.7378 -6.2990 -5.8503 1.4669 -5.0203 -7.8902 -1.4810 -3.3572 5.5228 -3.2763 -1.8140 5.0062 -0.3888 6.5397 1.7319 1.2953 6.4546 3.4722 0.9491 -5.2966 -5.1546 0.7435 -4.0880 -7.2455 -0.5411 -2.2608 5.3748 -2.4052 -0.8005 4.8558 0.3795 -2.0980 -4.5076 -0.8745 1.2407 0.3719 0.2928 1.2425 1.3524 -0.9113 -0.3249 -1.4542 0.5359 0.1630 3.5367 1.2013 2.4387 1.1629 0.1287 -1.0174 -2.3082 0.7691 5.9178 2.3556 0.4867 -4.2222 -5.8201 -0.9807 -1.0370 5.0266 -1.4448 -1.2129 -0.3432
-0.1459 -2.0415 0.4823 -2.3654 -2.2777 -0.6114 -0.3276 -0.8709 -6.1530 1.7460 -0.5153 2.9953 2.1269 2.6382 0.3599 1.3778 -1.0616 -2.0373 0.7846 -1.3245 -5.3991 1.3053 5.0028 1.6449 -0.3891 -3.5249 -4.9687 0.3999 0.0989 4.8823 0.6053 3.7426 1.7092 -0.2761 0.8336 -0.8860 -0.4313 -1.7286 -3.3221 0.1670 1.1742 2.7611 -1.9597 -0.1351 0.9539 -0.5705 8.2239 3.7342 1.9360 -6.0836 -7.5026 -2.6245 -2.9053 5.3251 0.4795 7.4392 4.3581 -1.0034 7.9101 2.5002 2.0685 -6.1962 -6.1687 1.0361 -5.0902 -8.0605 -2.9794 -1.6078 5.3258 -1.2275 -3.2758 5.1874 1.0194 6.3957 3.7036 -0.4045 6.7983 1.7834 1.3013 -5.3341 -5.2859 0.3316 -4.2863 -7.2445 -1.9665 -0.5792 5.1736 -0.2875 -2.3232 5.0532 0.3517 -2.3470 -4.3669 -0.8243 1.1837 0.4319 0.3803 1.3464 1.3499 -0.8609 -0.4212 -1.3637 0.8473 0.1877 3.4482 1.1372 2.6301 1.0909 0.1695 -1.0833 -2.2583 0.5467 6.0503 2.3723 0.4774 -4.4034 -5.8015 -0.6750 -0.9212 5.0128 -1.2764 -1.3175 -0.2093
-1.3004 0.2653 -3.6312 0.9785 0.8849 -4.4131 3.5958 -4.1873 -4.6761 2.7629 1.3492 2.6361 0.8367 3.8596 0.7883 -0.1441 -2.7730 -2.3469 2.6655 -3.4848 -5.4829 -1.7638 3.8530 2.0245 0.2250 -3.3635 -5.7297 1.4399 -0.3330 3.7262 -0.9392 2.7052 1.7296 0.1485 -0.4435 -0.9807 1.3678 -2.1243 -3.9739 0.8205 0.5658 1.6195 0.1145 1.9752 -2.1285 -1.1055 5.4685 5.9347 -2.3664 -6.7689 -5.5100 -0.5646 1.3706 7.1023 -2.1420 4.4793 5.7019 -0.3093 5.8598 4.9242 -2.7985 -5.5815 -5.0486 -1.0283 -6.8890 -6.0611 -1.2823 0.6869 6.1929 0.8568 1.5798 6.8962 -2.3038 3.9463 4.4773 -0.5012 5.3051 3.5967 -1.9229 -4.4238 -5.0925 -0.2155 -5.8178 -6.0987 -0.6303 0.1406 5.0154 1.4602 1.0774 5.8048 1.3619 -3.3592 -4.7265 -0.1018 0.9591 -0.6421 0.7645 1.4808 0.4980 0.7449 -0.5093 -2.3212 1.7603 0.6430 2.6257 0.2357 2.8103 1.0123 0.5844 -1.9242 -2.8533 -1.4431 4.3673 3.3838 -0.6712 -4.5399 -5.5726 0.6861 0.3409 4.8177 0.1238 0.5495 -3.2184
0.2562 -2.1762 -0.5385 -1.9605 -1.7058 -1.5638 2.9009 0.2353 -5.1875 1.9988 -0.8779 3.4280 2.6113 2.4024 1.9972 1.9549 -0.3300 -2.3456 1.5982 0.0808 -5.7235 1.0595 4.7636 2.1837 -0.1423 -1.6301 -5.8363 0.2680 -0.7561 5.0926 0.5361 3.4312 2.0025 0.3814 1.0087 -0.5326 0.1616 -0.3132 -3.8134 0.2465 0.6191 3.1408 -1.3943 -0.5191 0.7632 -1.7801 7.9003 1.5818 -0.7559 -5.7840 -5.0356 -1.3897 -4.7014 4.8302 -1.8241 7.0776 2.7765 -0.8797 7.6398 0.6177 0.2249 -5.4299 -5.8857 -1.5734 -4.7655 -4.4020 -2.2090 -3.6377 4.7485 0.0325 -4.5070 5.0466 -0.9595 6.0583 2.9235 0.0624 6.5472 0.7826 0.4728 -4.0252 -6.1631 -1.3422 -3.4669 -4.6571 -1.6640 -2.2942 4.8281 0.5337 -3.2626 5.1405 0.8493 -0.9525 -4.9139 -0.3700 0.9835 0.7254 0.6751 1.0169 1.8272 -0.2725 0.1352 -1.5040 0.9385 -0.3814 3.7976 1.3838 2.3454 1.9582 0.7559 -0.1866 -2.5731 0.0123 5.7712 1.8808 -0.2694 -3.0816 -5.5555 -0.3396 -2.1098 4.9778 -0.7884 -1.1217 -0.8200
-1.5322 -1.7138 -0.7319 -2.6958 -0.9037 -2.7711 3.4174 -2.7569 -4.5158 -0.8144 -1.4036 2.5194 2.1435 1.2626 1.6429 1.2561 -1.7474 -1.9913 2.4743 -1.9943 -5.2542 1.6583 3.9754 2.3597 0.2175 -2.8315 -5.9244 -2.4226 -0.1483 3.7902 0.6706 3.0490 1.8625 0.3256 0.8012 -1.2989 0.4793 -1.2363 -4.1174 -1.1335 0.8581 2.0675 -2.2946 0.8482 -0.7677 -0.0619 7.4726 4.1262 1.0057 -6.8873 -7.0656 -0.6738 -0.0039 7.6977 0.0462 7.3447 2.6838 0.3422 6.4693 4.9256 1.4687 -5.8852 -7.8346 0.2431 -6.5893 -5.8656 -1.0977 -1.1857 7.2148 -0.8047 1.1985 6.8944 0.5570 6.2224 2.1460 0.9012 5.2587 4.3479 1.2097 -4.5065 -7.4609 0.0013 -5.3122 -5.5191 -1.6885 -1.2580 5.8905 -1.3468 1.1324 5.6654 1.0905 -2.3678 -4.7747 -0.6157 1.3992 -0.3442 -0.1419 0.9285 1.0266 -0.4050 -0.0092 -2.2751 -1.3593 -0.3255 2.7420 1.0184 1.7495 1.5441 0.5388 -1.0935 -2.7444 0.9867 5.1312 3.0097 0.5211 -4.2293 -6.3382 -1.7883 -0.1484 5.1352 -1.6964 -0.5639 -1.6970
-0.1901 -1.8684 -0.3386 -1.8235 -2.0546 -2.2023 2.0557 1.1100 -5.8034 -0.4413 0.1562 3.9443 -2.5431 3.4892 2.0264 1.6154 0.4426 -1.6779 2.6962 0.4186 -4.7426 -0.0626 4.8337 1.5450 1.5423 -1.6936 -5.3857 -2.6725 -0.4508 4.6134 -0.2502 3.4097 1.6659 -0.7973 1.2213 -0.7175 0.6143 -0.2479 -3.6436 -2.2518 0.8109 2.6436 -2.5573 -0.6712 -0.0307 3.9944 6.1242 1.9276 1.6991 -5.7987 -4.2036 -2.3358 -4.7164 4.4112 3.2262 5.7349 3.0960 3.4496 6.0315 0.7016 2.8258 -5.2090 -4.6427 0.4656 -5.0382 -4.1171 -1.5263 -4.0365 5.2428 -3.3377 -4.0091 3.6335 1.9726 5.2689 2.9531 2.0910 5.5421 0.5476 2.8077 -3.8105 -5.0353 0.4484 -3.7435 -4.4768 -1.6381 -2.5929 5.3416 -3.4357 -2.6702 3.7169 1.8302 -0.7258 -4.2603 -1.9497 1.0287 0.1648 -1.4663 1.3686 1.5701 -0.7957 0.1833 -1.7477 -1.6453 0.1766 3.7086 -1.5149 2.8656 1.7816 0.6102 0.1434 -2.3190 1.3852 5.1571 1.6267 1.6670 -3.1035 -4.9412 -2.5265 -1.9304 4.5776 -1.2350 -1.1460 -1.1540
-0.4056 -2.4482 0.5548 -2.4907 -2.2217 -0.7819 2.6050 -0.9487 -4.9793 1.5201 -0.3429 3.9817 2.5963 2.0905 1.2520 1.3476 -1.9451 -1.8498 1.2162 -0.7877 -5.2228 1.4610 4.6838 1.4577 -0.4413 -2.6012 -5.5901 -0.3453 0.4208 5.2914 0.7557 3.4411 1.6548 0.2309 0.3647 -0.5910 -0.2704 -1.4909 -3.4478 -0.0397 1.0929 3.0295 -1.8725 -0.2525 0.9490 -0.7513 8.2143 2.4194 1.3485 -5.7033 -7.9431 -2.5457 -3.1691 6.0772 0.3382 7.7595 3.2639 -1.1197 7.4906 1.3474 1.3155 -4.4488 -8.4269 0.8116 -5.9862 -6.6237 -1.2656 -3.0880 6.4825 -3.1550 -2.0573 5.3694 0.9795 6.6125 2.9762 -0.4063 6.2695 1.0182 0.7227 -3.3835 -7.6382 0.2724 -4.9976 -5.8875 -0.4974 -1.8841 6.2208 -2.4395 -0.9479 5.1124 0.4889 -1.9516 -4.5871 -0.5087 0.8933 0.5639 0.5013 1.0279 1.6957 -0.6018 -0.6412 -1.2487 0.4846 0.3127 4.0405 1.4025 2.2302 1.5120 0.2849 -1.4300 -2.1845 0.5855 5.8301 1.8149 0.2371 -3.6408 -6.4097 -1.0512 -0.8652 5.5373 -1.2986 -1.5007 -0.2102
-1.2279 0.5227 -3.6330 1.2068 0.5868 -3.1152 -0.3618 -5.4505 -2.0445 1.1790 0.2868 3.1837 -2.4641 2.0908 2.4039 -1.6457 -2.5181 -2.5165 0.9132 -4.9523 -2.4172 -1.0030 4.5322 2.5343 1.8796 -3.8576 -4.4029 -0.1046 -1.7095 3.5829 -0.5265 3.2931 1.9715 -1.4381 -0.4907 -0.6893 0.6597 -2.5705 -2.7454 -0.7742 -0.0871 1.9816 -0.4592 1.8752 -1.4519 1.9639 7.5767 2.9444 0.8019 -3.3695 -8.5212 -1.2878 -0.9365 7.6276 1.2596 7.3874 1.6895 1.7573 6.7294 3.9684 0.8205 -4.6073 -7.9948 1.1209 -2.2233 -7.6892 -2.2387 -1.0955 6.6896 0.1127 -1.0777 7.2729 0.3769 6.3811 1.5584 0.7875 5.6562 3.8357 1.1705 -4.7978 -6.5977 1.4359 -2.3974 -6.3933 -1.8637 -1.3705 5.3136 0.4609 -1.3497 6.0031 0.7185 -3.8441 -3.4286 -1.3696 0.8949 -0.2227 -0.6774 1.0726 1.1238 -0.3118 -0.7114 -1.6005 0.1924 -0.3919 2.9165 -1.3491 2.1863 1.8992 -0.5381 -2.0239 -2.3244 0.1282 5.4829 2.6753 1.4427 -3.7339 -5.8192 -0.5639 -1.4595 4.9758 -0.1834 0.4711 -2.5442
-1.3728 -2.0325 -1.0216 -2.7269 -1.3679 -2.9997 2.2522 -1.6451 -6.4986 -0.0785 -0.7828 3.0442 1.9193 1.4824 0.9156 1.5262 -1.3625 -2.3393 2.3783 -2.3616 -5.2811 1.3249 3.9932 2.0437 0.2063 -3.5581 -5.7792 -2.2123 -0.0722 3.8950 0.3560 2.9603 1.7637 0.0220 0.7765 -1.6008 0.2763 -1.6379 -4.2656 -1.3335 0.7499 1.8355 -2.5434 0.3690 -0.9667 0.5460 6.4529 5.4535 1.6112 -7.5325 -6.5702 -1.1314 2.3578 7.2581 1.1486 5.1415 5.6078 0.1652 6.8778 4.2360 2.0706 -6.5149 -7.3200 0.6757 -7.2721 -5.4906 -0.9193 1.0307 7.3173 -1.7497 2.9408 6.0814 1.3282 4.3501 4.5345 0.3778 6.0326 3.0747 1.6100 -5.1620 -7.0643 0.2635 -6.0162 -5.2411 -1.2875 0.1861 6.1945 -2.0833 2.1611 5.0383 1.0164 -2.7802 -4.7589 -0.9741 1.2112 -0.6130 -0.3913 0.8656 0.7529 -0.5722 -0.1586 -2.5626 -1.0804 -0.0893 2.9021 0.7500 1.7901 1.1458 0.5341 -1.1012 -3.0163 0.9085 4.8040 3.2170 0.7539 -4.9154 -6.0542 -1.8154 0.7325 5.0830 -1.7492 -0.9032 -1.9511
-1.8965 -1.3431 -1.3734 -2.8101 -0.0990 -3.3212 1.5208 -0.8311 -7.1596 -1.4793 -1.5687 2.0869 1.7512 0.9287 1.4741 1.2148 -1.1322 -2.2688 0.5293 -1.6314 -6.5372 1.3490 3.0029 3.3866 0.4364 -3.1533 -4.5820 -3.1752 -0.4069 3.3272 0.4018 2.5707 2.3869 0.1008 1.1755 -1.3138 0.2275 -0.7365 -4.3274 -1.6495 0.7429 1.9043 -2.5527 1.2232 -1.0016 1.8449 7.2541 3.3897 3.0646 -6.4083 -5.5113 -1.7582 -0.6827 7.3612 1.2036 6.5711 4.4985 2.2925 6.5520 2.3336 1.9840 -6.1927 -6.2827 3.3457 -5.5244 -4.3937 -1.9337 0.5318 6.8105 -2.0681 -1.8783 6.5978 1.0412 5.2364 4.4642 2.1387 5.1085 2.3064 1.0956 -5.0826 -5.9900 2.5278 -4.4895 -4.1276 -2.4194 0.6467 5.4473 -2.5228 -1.7733 5.3365 0.8843 -1.7886 -5.0747 -0.9069 1.6158 -0.3414 -0.5813 0.8764 0.9505 -0.5406 0.5334 -2.4618 -2.0039 -0.5009 2.3877 0.6450 1.4421 1.6343 0.4133 -0.5284 -2.9764 1.5077 4.4784 3.3149 1.3650 -4.2499 -4.9676 -2.6770 -0.4610 4.7279 -1.9101 -0.0278 -2.1145
-1.3722 -2.1931 0.9786 -3.4540 -2.1364 -0.3864 2.5317 -2.4362 -2.5596 1.1777 -0.5396 3.2771 1.9749 1.8441 0.2301 -0.2756 -2.9896 -1.4584 2.0552 -1.7370 -3.6988 1.6413 4.4591 1.2154 0.3807 -2.0012 -5.5112 -0.3099 0.3549 4.9403 0.6980 3.3828 1.3938 -0.5414 0.1958 -0.8440 -0.3290 -1.5354 -3.2516 -0.3604 1.0966 2.6756 -2.6356 0.1313 0.8228 0.3114 8.2080 2.7737 2.0569 -4.8653 -8.2187 -2.5739 -3.1513 5.9093 0.9518 7.2288 3.6329 0.0876 7.9248 1.4782 0.9065 -5.1625 -7.5879 2.7167 -3.5972 -7.9652 -1.2479 -3.1489 6.1356 -3.2215 -1.9668 5.3744 1.3219 6.0361 3.1345 0.4997 6.6425 0.9355 0.3259 -4.2164 -6.6509 2.1843 -2.7241 -7.0918 -0.4630 -1.9667 5.8290 -2.4939 -0.8743 5.0815 0.6649 -2.2338 -4.0411 -1.1321 0.9760 0.2539 -0.0188 1.0665 1.2833 -1.4537 -0.8792 -1.2298 0.2552 0.2221 3.5515 0.9973 2.1236 0.9227 -0.6272 -1.9246 -1.9585 1.0704 5.7246 1.7368 0.9518 -3.0535 -6.3929 -1.0548 -0.8850 5.2885 -2.1971 -1.3993 -0.0083
-0.4407 -2.2666 0.5456 -2.7080 -2.4754 -0.4458 -0.1779 -4.9162 -2.8784 1.5540 -0.6238 3.1019 2.1250 2.2913 0.8291 1.0046 -1.1146 -2.0523 0.6873 -3.8790 -3.3082 0.6828 4.7586 0.5819 0.7628 -2.0816 -5.0537 0.2946 0.1109 5.0054 0.2066 3.5363 1.1874 -0.6594 0.6488 -0.7957 -0.8235 -1.9478 -3.2084 -0.0374 1.0509 2.8309 -2.2234 -0.3601 1.1235 0.2770 8.0213 3.3303 2.1656 -4.2646 -8.4614 -2.6808 -2.8888 5.7240 -0.8885 7.4279 2.7011 1.5051 7.5477 3.0542 2.9284 -4.2170 -7.3546 0.8905 -3.5702 -8.4946 -1.3854 -3.2513 5.7135 -3.0457 -1.4969 5.5314 -0.7424 6.4032 1.8428 1.6636 6.4336 2.1347 2.4657 -3.4862 -6.1888 0.4545 -2.9052 -7.4095 -0.3546 -2.2534 5.4848 -2.0928 -0.5729 5.3170 -0.1168 -2.8589 -4.0909 -1.1334 0.9743 0.5536 0.1210 1.1245 1.4027 -1.2287 -0.6206 -1.2517 0.6784 0.1109 3.5502 0.9291 2.3668 1.1038 -0.2101 -1.2399 -2.1912 0.5820 5.8680 1.5674 1.2610 -2.8856 -6.2005 -0.6959 -0.9714 5.2552 -1.5942 -1.5267 -0.0870
-1.5572 -1.3696 -1.2781 -3.2361 -1.1415 -3.0905 3.9297 0.2342 -4.2845 0.0515 -0.4018 2.2606 -1.8062 3.3302 2.1835 -0.3837 0.3775 -4.6381 2.7793 0.7923 -3.6710 0.5350 4.6394 1.2024 2.7248 -0.8346 -1.8227 -2.0174 -1.2649 3.1246 0.0320 3.3607 0.7639 -1.3832 1.8169 -1.6803 0.6925 0.2422 -2.5895 -1.9515 0.6424 1.7060 -3.5131 0.4006 -0.9076 4.1088 4.1266 3.5042 1.6388 -4.7694 -0.5281 -2.9527 -4.7514 0.8168 2.8482 3.5736 3.9625 4.1707 4.7858 2.3333 1.0608 -3.7010 0.0480 2.6242 -4.5801 -1.5777 -1.8970 -4.7825 1.6496 -3.7769 -3.5595 0.7347 1.7348 3.7433 3.2287 2.9720 4.9535 1.5307 1.4195 -2.3632 -0.3799 2.9430 -3.3395 -1.9899 -1.5617 -3.6124 2.4418 -3.4776 -2.4824 1.4817 1.9601 -0.3086 -3.0263 -2.3127 1.7100 -0.5505 -1.4209 1.4849 0.6658 -1.6745 0.7743 -2.6612 -1.1723 -0.3251 2.3082 -1.1170 2.8178 1.3062 -0.4009 0.4330 -3.4102 1.8028 4.4386 1.9519 2.2934 -2.1872 -1.3869 -2.2995 -2.4925 2.3343 -2.4097 -0.4106 -2.0666
-1.5415 -1.8187 -0.7415 -2.7327 -1.4057 -2.8853 2.4869 -1.4804 -6.3229 -0.9160 -0.8443 2.6012 1.7729 1.8529 1.0894 1.2480 -1.7935 -2.0021 2.5773 -2.3223 -5.1837 0.9996 4.5541 1.6480 0.3849 -3.4366 -5.7572 -2.6774 0.4565 3.5895 0.1154 3.4564 1.3278 0.0886 0.7354 -1.6067 0.4760 -1.5839 -4.1767 -1.5084 1.2008 1.6611 -2.5469 0.6306 -1.1482 1.3461 5.2589 5.8596 1.5636 -7.5130 -6.3487 -1.0607 1.9974 7.2445 0.3056 5.9056 5.0801 2.1935 4.3979 5.2685 0.7741 -7.2102 -5.3024 1.9941 -6.4679 -7.2599 -1.5031 2.8597 6.3116 -1.1396 0.5675 7.0063 0.1866 5.6446 3.7658 2.0796 4.1335 3.8456 0.3596 -5.8362 -5.0793 1.6166 -5.1945 -7.0501 -2.0369 2.3622 5.0566 -1.6473 0.1050 5.8506 1.1982 -2.7189 -4.6997 -0.9375 1.3982 -0.7883 -0.4836 1.2055 0.6520 -0.5450 -0.2411 -2.4932 -1.5880 0.1818 2.5888 0.5926 2.1942 1.0442 0.4961 -1.2856 -2.8294 1.1008 4.7128 3.1257 0.7823 -4.8625 -5.9064 -2.0838 1.0373 4.8243 -1.7909 -0.8335 -1.8593
-0.4738 -1.6664 0.1932 -2.2590 -1.5419 -1.5287 3.1259 1.3218 -3.4354 0.5398 -1.0945 3.6464 -0.7063 3.0009 3.8744 1.4962 0.3302 -1.1080 2.1625 0.9320 -4.4000 1.3342 4.3238 2.2964 0.9487 -1.0781 -5.1013 -1.4298 -1.3717 5.0010 0.7671 3.0156 2.0822 -0.7431 1.5541 -0.0537 0.3028 0.1047 -3.0843 -1.2295 0.3956 3.4208 -2.6143 -0.1698 0.7525 1.5377 6.6652 -1.2867 1.4721 -5.3111 -4.7664 -2.7787 -5.1872 3.5922 2.2526 5.4055 -1.1913 0.7728 7.0842 -0.2631 2.4599 -4.5773 -5.3104 0.2584 -4.6647 -4.3010 -1.5571 -5.0923 4.1473 -3.6365 -4.0177 3.5215 2.1539 4.6573 -0.0776 0.6620 6.2746 0.9371 2.3163 -3.1359 -5.4229 0.1268 -3.3303 -4.3988 -1.0884 -3.8144 4.6521 -3.2000 -2.8316 3.9818 1.4299 -0.2930 -3.8995 -1.6007 1.2947 1.1084 -0.6704 1.1341 2.3130 -0.9166 0.5173 -1.0711 -0.5871 -0.7095 3.9418 -0.2425 2.4856 2.8619 0.4342 0.3144 -1.7254 1.3115 5.0993 1.0254 1.2048 -2.5340 -4.9611 -1.8594 -2.7171 4.5334 -1.4767 -0.7726 -0.4961
-1.3750 -2.3405 0.1588 -3.1427 -1.5181 -1.3793 -1.4388 -4.4177 -4.0768 0.8066 -0.4387 3.8543 2.3374 1.9100 1.6929 1.0017 -1.9321 -1.7802 -0.1097 -3.9761 -3.8541 1.4913 4.5277 0.8963 1.4986 -2.3054 -4.8039 -1.0353 0.4631 5.1079 0.6407 3.4427 1.3269 -0.0003 0.3802 -0.6618 -0.4552 -1.5711 -3.5490 -0.5422 1.1891 2.8874 -2.3422 0.1123 0.5989 0.6822 8.0539 3.1910 3.0908 -4.4355 -8.1568 -3.4037 -3.0778 5.5908 -0.2352 7.6103 2.1577 1.8033 7.3542 3.4414 2.3682 -3.3227 -8.3780 3.3194 -4.8949 -6.7987 -2.1651 -3.0472 6.1143 -3.9320 -1.9092 4.9097 0.0331 6.4983 1.4507 2.0907 6.1485 2.6831 1.8016 -2.5903 -7.2590 2.7917 -4.2203 -5.7621 -1.3504 -1.8527 5.9776 -3.1750 -0.8059 4.7747 0.0515 -2.5909 -4.4478 -0.7989 1.0443 0.3713 0.0920 1.1001 1.6004 -0.8846 -0.4410 -1.4855 -0.1546 0.3242 3.8948 1.1479 2.1799 1.5397 0.0039 -1.3964 -2.2569 1.2291 5.7232 1.7406 1.9795 -3.0380 -6.0030 -1.8187 -0.7885 5.2985 -1.9020 -1.1511 -0.6070
-0.2448 -2.2341 0.7438 -2.4788 -2.1473 -0.3382 1.7680 0.0093 -4.5558 1.8182 -1.0348 3.5235 2.6521 2.0413 1.6553 1.3654 -1.0047 -1.6510 0.5539 -0.5688 -5.0101 1.5149 4.6245 1.6460 -0.5529 -2.7988 -4.9757 0.4845 -0.5118 5.4444 0.8132 3.4103 1.9929 -0.1703 0.8087 -0.2507 -0.4826 -1.4150 -2.9874 0.3298 0.7514 3.4147 -1.8950 -0.2713 1.4859 -1.0770 7.9345 0.8322 1.5643 -4.8973 -8.0577 -2.6627 -3.4210 5.5836 -0.9910 6.8149 -0.0877 -0.3488 7.9330 1.9628 1.7220 -5.2875 -6.7800 0.6857 -3.7858 -8.3733 -2.9647 -2.1152 5.6963 -1.2776 -3.8351 5.4492 -0.1943 5.7690 0.1954 0.5108 6.8026 2.2698 1.0248 -4.5871 -5.7152 0.0449 -3.1321 -7.3879 -1.9087 -1.1202 5.6530 -0.2970 -2.9149 5.4191 0.2565 -1.7967 -4.1741 -0.6840 1.0259 1.1078 0.5388 0.9932 2.0124 -0.8328 -0.3388 -0.8737 0.9516 -0.3238 4.0254 1.4505 2.1910 1.8734 0.1554 -0.9425 -1.8552 0.5592 5.7440 1.4396 0.2400 -3.5316 -6.0017 -0.6286 -1.4994 5.4836 -1.3128 -1.3382 0.1655
0.1861 -2.6993 0.7533 -1.7106 -3.3851 -0.7013 3.5042 -4.5232 -3.9490 1.0231 1.0898 3.8528 0.9600 2.8185 0.3457 1.9640 -1.5045 -1.7070 2.2868 -4.3581 -3.2386 -1.1234 4.7572 0.7208 0.7376 -3.8921 -5.1058 -1.0201 0.4624 4.9498 -1.0524 3.4375 1.3071 -0.1055 0.0050 -0.7758 0.4864 -2.7653 -2.9707 -0.9628 1.0513 2.6454 -1.9858 -1.1375 0.7448 0.9923 7.7134 2.9958 -0.5371 -1.0914 -8.0865 -0.4036 -3.6805 5.8428 1.7075 6.7547 2.1743 -0.3495 7.6636 3.0737 -1.4179 -1.5124 -7.1613 0.8326 -1.5737 -8.0556 0.3418 -2.7584 6.4779 -1.4015 -3.2665 4.8722 1.0271 5.8224 1.4848 -1.0840 6.6514 2.3332 -0.9971 -2.4478 -6.1338 1.2253 -2.4344 -7.0993 0.1517 -1.3485 6.1871 -1.5781 -1.9614 4.6024 1.4523 -3.2881 -3.9123 -1.1186 0.3714 0.2199 -0.3726 1.0958 1.3325 -0.4234 -1.3182 -1.3089 -0.1823 0.8781 3.7706 -0.0791 2.5311 0.9386 0.8201 -1.8397 -2.0024 -0.4231 5.7461 1.5883 0.2792 -2.8723 -6.0864 -0.7523 -0.9654 5.2668 -0.8975 -2.2256 -0.1859
-1.6088 -1.3255 -0.9871 -3.3399 -0.5725 -2.5895 3.7195 1.0643 -3.8252 0.1859 -1.3837 2.6179 -1.1498 2.2184 3.6657 -0.5736 1.3419 -3.8047 2.6221 1.4238 -3.0029 1.0658 3.6984 2.6344 2.6557 -0.7035 -1.7383 -1.8700 -2.3163 3.4334 0.2882 2.7179 1.9177 -1.3923 1.9009 -0.5349 0.6136 0.5771 -1.9685 -1.7657 -0.1282 2.4872 -3.4699 0.3023 -0.0303 3.4785 6.2121 0.1518 1.9351 -4.9233 -1.9853 -3.2743 -5.0587 0.4557 3.8159 4.8131 0.3417 2.3761 6.7226 0.7285 0.9039 -4.0988 -1.7314 3.2692 -4.3790 -2.1698 -2.0944 -5.3004 1.0550 -4.0672 -3.9091 0.8519 3.0164 4.0212 1.0783 1.5160 5.8691 1.5296 1.1329 -2.6705 -1.6471 3.4725 -3.0493 -2.1215 -1.5976 -4.3917 2.0740 -3.6145 -3.0757 1.8047 1.8271 0.1825 -2.6543 -2.2219 1.4687 0.5959 -1.2418 0.9041 1.6254 -1.7337 1.1296 -1.7250 -1.0227 -1.2532 2.7856 -0.7261 2.0077 2.5328 -0.5188 1.0216 -2.6191 1.8045 4.5625 1.6758 2.3533 -2.1537 -1.8771 -2.3098 -3.2989 2.4064 -2.4590 -0.1679 -1.4373
-1.9613 -2.1808 -0.5999 -2.9335 -1.0661 -2.5991 3.3308 -2.4588 -4.3807 -1.1318 -1.4011 3.2979 2.0612 0.7844 1.9323 0.8041 -2.5373 -1.9164 2.2963 -1.8370 -5.1271 1.7795 3.5623 2.4241 0.2156 -2.8839 -6.0236 -2.6682 0.1924 4.2354 0.7204 2.6733 2.0144 0.2334 0.0122 -0.8846 0.1917 -1.6267 -3.9597 -1.2772 0.7342 2.3880 -2.3732 0.4553 -0.4528 0.5607 7.5924 3.1629 1.7544 -6.2893 -8.1245 -1.0530 0.9911 8.1215 0.5830 7.0609 1.8123 0.8532 6.7947 4.2054 1.9521 -5.0581 -8.6290 1.0396 -6.4530 -6.8710 -1.5840 -0.2190 7.8699 -1.0231 2.0021 7.0798 0.9135 5.7745 1.6002 1.2202 5.4081 3.9761 1.4383 -3.8963 -7.9261 0.5652 -5.3767 -6.2177 -2.1252 -0.5142 6.5553 -1.5188 1.7280 5.8600 0.9900 -2.5132 -4.7747 -0.6412 0.8425 -0.0476 -0.2547 0.5408 1.3937 -0.5618 -0.5401 -1.9801 -1.6000 -0.2674 3.2810 0.9657 1.3301 1.8137 0.2236 -1.6835 -2.5805 1.2303 4.9091 2.7262 0.7891 -4.0446 -6.7565 -2.0712 0.4117 5.5800 -1.9335 -0.9529 -1.4783
1.0849 -2.2567 0.8863 -0.5896 -3.6672 -0.2956 4.1386 -2.5946 -4.2984 0.8892 1.3338 3.9553 -2.5890 2.7430 1.9117 1.7884 -0.4069 -1.7312 3.1164 -2.8886 -3.3609 -1.0915 4.3905 0.1258 1.2606 -3.2957 -4.9274 -0.6660 0.2195 5.3974 -0.7081 3.0819 0.5941 -0.5478 0.0764 -0.4306 0.8541 -2.2442 -2.7860 -1.1980 0.7387 3.1241 -1.4966 -1.7206 1.3099 1.5553 7.3388 1.7449 -1.5915 -1.6181 -7.6399 -0.3121 -4.0510 5.3288 0.6778 6.5760 2.6131 1.5470 7.1223 0.4175 -0.2843 -1.5581 -7.9523 -2.0123 -2.2191 -6.3874 -1.5336 -3.4897 5.3739 0.8728 -3.2119 5.3198 -0.1503 5.6559 2.0891 0.6660 6.1161 -0.1478 0.7068 -2.1003 -7.0394 -1.0958 -2.7180 -5.5398 -1.6662 -2.0446 5.3977 0.7511 -1.8730 5.3530 1.8003 -2.3446 -3.8767 -1.4386 -0.0028 0.7310 -0.9048 1.0100 1.7385 -0.3562 -1.2649 -0.9775 -0.2131 0.8101 4.0880 -1.5185 2.3605 1.4492 0.8786 -1.2217 -1.8600 -0.1365 5.3969 0.6571 0.3183 -2.6403 -5.8701 -0.5704 -1.2645 5.3605 -0.2354 -2.2732 0.1544
-2.3821 -1.6445 -1.4681 -3.0240 -0.5229 -3.5929 1.3899 -1.6358 -7.3269 -1.8779 -0.6324 2.6960 1.6357 0.6602 1.2809 0.6817 -2.2167 -2.4166 0.3908 -2.4669 -6.7592 1.8664 3.4216 1.9241 0.4212 -4.0825 -4.8877 -3.2475 1.2482 3.2959 0.6707 2.7579 1.4634 0.0528 0.3084 -1.5969 -0.1510 -1.7448 -4.5246 -1.7075 1.3462 1.4873 -2.5217 1.0262 -1.4615 1.6276 5.0552 5.8688 3.7976 -6.7074 -5.1613 -1.7443 2.5957 7.0738 1.9770 3.6617 5.6610 1.3029 5.8317 4.8197 2.8530 -6.7458 -6.1180 3.6799 -5.7642 -4.0634 -2.2205 1.3418 6.9716 -1.7351 3.4648 5.9112 1.9841 3.1471 4.4183 1.3341 5.2828 3.4757 1.7136 -5.8492 -6.0470 2.6268 -4.9294 -4.0000 -2.7252 0.8601 5.6984 -2.1787 3.0116 4.7257 0.6901 -2.6435 -5.2870 -0.8169 1.2354 -0.8623 -0.6498 0.9018 0.6159 -0.6747 -0.2326 -2.7464 -2.1978 0.5333 2.4889 0.6716 1.4132 1.1548 0.0424 -1.4976 -3.1799 1.6428 3.9877 3.2807 1.6121 -4.9600 -5.0420 -2.6791 1.6512 4.6101 -2.1313 -0.4676 -2.3802
-0.7590 -2.8612 0.5726 -2.7664 -2.4878 -0.8411 -0.8264 -5.3131 -3.4627 1.3789 -0.2824 3.8529 2.2996 2.0573 1.3597 1.3266 -2.2775 -1.6343 0.4239 -4.6455 -3.4824 0.9482 4.4109 0.4406 1.5956 -2.8164 -4.6656 -0.4762 0.4284 5.2068 0.3405 3.2526 1.0518 0.0563 -0.0456 -0.6076 -0.3352 -2.3213 -3.2530 -0.3045 1.0034 2.8975 -2.0874 -0.5640 0.9055 -0.2350 7.9712 2.5074 1.4921 -1.4260 -8.7095 -2.1593 -3.3820 6.2197 -1.1525 7.2885 1.6137 1.0040 7.4850 2.7002 2.0962 -2.5961 -8.4350 0.8832 -0.6543 -7.6412 -0.9030 -3.1011 6.6097 -2.9348 -2.3870 5.5003 -0.7649 6.1696 0.9766 1.4218 6.2722 2.0179 2.1198 -3.0983 -7.0727 0.9099 -1.1152 -6.3786 -0.3172 -1.8111 6.2906 -2.3895 -1.1957 5.1960 0.2560 -3.2968 -4.1469 -0.7501 0.5779 0.4448 0.2245 0.8907 1.5663 -0.7446 -1.0762 -1.2618 0.3086 0.3147 3.9277 1.0727 2.1151 1.3106 0.2153 -1.9498 -2.0421 0.5647 5.6262 1.2060 1.5282 -2.3986 -6.0878 -1.0160 -0.9086 5.5766 -1.5450 -1.8521 -0.2292
-1.4880 -1.3051 -2.2404 -3.0046 -0.3673 -3.9558 4.1596 1.4278 -3.8162 -0.2549 -1.8286 1.4739 -1.9253 1.8005 2.7110 -0.1367 1.6864 -4.5250 2.8719 1.6923 -3.2861 0.5058 3.2449 2.3272 2.8260 -0.5557 -2.2601 -2.4057 -2.8264 1.8580 0.0454 2.1340 1.5302 -1.4270 1.8597 -1.3710 0.7779 0.6888 -2.6435 -2.1712 -0.5266 1.2861 -3.5132 0.1897 -1.3578 4.3658 4.7920 1.3446 1.6981 -4.6677 -2.6606 -3.1026 -2.8927 6.0857 3.2263 5.0384 0.4798 4.2236 4.0316 2.4447 1.1575 -3.9271 -1.6767 2.6758 -4.0783 -3.5593 -2.2032 -3.7447 5.5614 -3.8468 -1.9981 5.2181 2.0334 4.4845 0.7621 2.9330 3.4427 2.7557 1.5423 -2.5364 -1.5263 3.0162 -2.7824 -3.4331 -1.9517 -3.7461 4.1303 -3.6331 -2.0165 3.8912 2.0884 0.3991 -3.1828 -2.3966 1.2882 -0.4310 -1.5520 0.6016 0.6390 -1.5798 1.2269 -2.6769 -1.4725 -1.6905 1.5322 -1.2004 1.5733 1.7466 -0.2491 1.2268 -3.3908 1.8858 3.6296 1.9309 2.4003 -1.9721 -2.3951 -2.6162 -2.8924 3.3295 -2.3026 -0.1041 -2.6496
-1.0398 -2.5403 -0.9393 -2.6289 -1.5548 -2.5790 3.1136 -0.0647 -6.0668 0.0668 -1.8519 3.5177 -0.9360 2.2691 3.1863 1.5730 -0.9037 -2.0298 2.2402 0.1274 -4.9671 1.8032 3.0096 2.5552 1.9009 -2.3335 -4.6738 -2.0711 -1.7647 4.6005 1.0117 1.9563 1.9621 -0.2173 0.4667 -0.5470 0.2226 -0.7193 -3.9056 -1.5391 -0.3604 2.7442 -2.6361 -0.5731 -0.0823 1.0035 6.7780 0.6758 0.8093 -5.4081 -7.4455 -1.8280 0.8349 7.9992 1.7460 5.7466 -0.0261 0.5578 6.5552 1.9248 0.1723 -5.3354 -6.2629 1.8386 -4.4389 -7.7762 -2.8637 0.9572 7.1496 -0.8248 -0.1913 7.7784 1.9887 4.5656 0.5708 0.8159 5.2799 2.5683 0.5158 -4.2886 -5.3170 2.1541 -3.4658 -6.9029 -2.9651 0.0779 5.9992 -0.9250 -1.0152 6.7203 1.2260 -0.9956 -4.9152 -1.3131 0.5643 0.4194 -0.6900 0.3024 1.7871 -0.7162 -0.1462 -1.7776 -1.0467 -1.3398 3.5822 -0.2483 1.6110 2.4122 0.4962 -0.6271 -2.5534 1.4829 4.3132 1.9116 1.4521 -3.3753 -5.6326 -2.0186 -0.8522 5.7749 -1.6835 -1.2695 -1.4400
-1.6244 -1.4255 -0.2496 -3.0462 -1.3801 -2.2903 1.1237 -0.6258 -6.3066 -1.0677 0.6036 3.9532 -1.8858 3.9395 2.1836 0.8618 0.2099 -1.4789 0.7670 -1.6607 -5.4043 0.8912 4.2680 1.6487 1.4329 -2.3987 -3.1225 -3.3798 0.1494 4.4036 0.1595 3.0279 1.5736 -1.3617 1.7112 -0.9889 -0.0794 -0.5133 -3.4663 -2.6842 1.3172 2.4432 -3.5865 0.3798 -0.3440 5.1302 3.8554 1.3098 5.3002 -4.1255 -3.7767 -3.9890 -4.0072 3.5618 4.2978 3.9957 0.1292 4.5646 3.7665 2.5270 4.2238 -4.6707 -4.3704 5.1488 -2.9456 -2.9445 -4.9245 -3.1158 3.1887 -2.7958 -3.5598 4.2562 2.9602 4.0633 0.2523 3.1217 3.8625 2.6639 2.9112 -4.0871 -4.1657 3.9338 -2.3964 -2.7621 -4.7308 -1.7026 3.4598 -2.6232 -2.2541 4.5244 1.0804 -1.2040 -3.9950 -2.4482 1.7509 -0.0067 -1.7839 1.6607 1.3659 -1.5064 0.5517 -1.8703 -2.2357 0.6815 3.5826 -1.2105 3.0092 1.7522 -0.1057 0.0875 -2.2253 2.3483 3.9944 1.5703 2.7711 -2.9794 -3.4142 -3.6114 -1.2832 4.0775 -2.3475 -0.5506 -1.2447
-0.5258 0.3031 -2.7908 1.8635 -0.3223 -3.1159 -1.2489 -6.0049 -4.3317 2.3799 -1.0487 3.6878 2.1170 2.4771 2.2446 -1.3643 -2.8244 -1.5598 -0.3424 -5.3273 -3.4777 -0.2604 3.7681 3.1095 0.6502 -3.8865 -5.2219 0.3310 -1.6058 4.8067 -0.1730 2.4250 2.5849 -0.0910 -1.0445 0.0207 0.4870 -3.1322 -2.9098 0.3644 -0.3418 2.7779 1.2275 1.0817 -0.9313 -2.1857 6.2892 0.2314 -0.5855 -1.0667 -8.2069 0.0460 1.0043 8.1947 -0.8270 5.8246 0.0186 -2.8490 5.9433 1.3491 0.6312 -0.9496 -7.6452 -1.4742 -2.1384 -7.7929 1.2002 0.3475 7.9794 -1.0847 0.7950 7.3079 -0.2299 5.0479 0.9398 -2.2113 5.0905 2.3366 1.0484 -1.8877 -6.6186 -1.0858 -3.0103 -6.8443 1.3183 -0.5589 6.8508 -0.9721 -0.0357 6.2563 -0.1747 -3.8967 -3.9482 0.2381 0.3338 0.3874 0.9540 0.4495 1.7226 0.5754 -1.3958 -1.2412 1.1554 -0.9683 3.7192 1.0414 1.8807 2.2201 -0.2274 -2.5076 -1.9022 -0.9627 4.6358 2.1277 0.2159 -2.8629 -6.2101 0.2886 -0.7122 5.9966 0.7424 -0.1681 -2.1217
-0.0646 -2.5355 -0.9899 -1.8958 -2.0647 -2.6074 3.7297 0.7403 -4.1070 0.2636 -1.9057 3.5915 -1.2614 2.0533 3.2471 1.8406 -0.3133 -1.8650 2.6003 0.8608 -4.9578 1.1963 3.3156 2.3935 1.0924 -0.7704 -6.0453 -1.9274 -2.1975 4.5387 0.6287 2.0815 1.9039 -0.3680 0.5918 -0.4844 0.6279 0.0557 -3.8006 -1.5076 -0.6047 2.8242 -2.2343 -1.2800 -0.0776 1.0690 6.4759 -0.4978 0.1637 -4.9488 -6.3365 -1.3544 -0.7069 8.5151 1.9792 5.3578 -0.6644 0.2069 6.4918 0.5339 -0.6487 -4.1461 -5.6265 1.3508 -4.3998 -6.9674 -0.7575 -1.8565 8.1541 -2.2044 -0.0026 7.5718 1.9894 4.3552 0.2329 0.2180 5.4117 1.5050 -0.3487 -2.7303 -5.5156 1.6417 -3.0920 -6.8441 -0.9474 -2.3816 6.8143 -2.3810 -0.4868 6.3293 1.6809 -0.3200 -4.7214 -1.4221 0.2450 0.4721 -0.7522 0.1361 1.8405 -0.5713 -0.1400 -1.7300 -0.9152 -1.5666 3.6187 -0.5180 1.5178 2.4306 0.7683 -0.1497 -2.4426 1.0656 4.3767 1.3585 0.7663 -2.2237 -6.0739 -1.7016 -1.7092 5.9253 -1.0979 -1.5351 -1.4457
-0.7694 0.1417 -2.8239 1.5726 0.3313 -3.6503 1.2662 -5.8918 -5.2077 3.4020 0.1322 3.3832 1.9919 2.9622 1.9228 -0.2336 -3.1531 -1.7064 1.8347 -4.7573 -4.5757 -0.6054 3.4120 3.0029 0.3805 -3.0843 -5.6652 1.9330 -1.5138 4.3295 -0.1482 2.1943 2.3762 0.5868 -1.0183 -0.2668 1.2702 -2.7333 -3.4111 1.3234 -0.2438 2.4094 0.9890 1.4270 -1.2813 -3.6633 5.3405 0.7070 -3.3335 -0.9408 -5.7127 0.3764 0.2298 7.9229 -3.9333 4.8298 2.0387 -2.4351 5.2163 0.1737 -2.2019 -0.3213 -6.0930 -3.2952 -2.3340 -5.3052 -0.4796 -0.2446 7.0002 1.8081 0.1383 7.6999 -2.9612 4.2118 2.7335 -1.3791 4.5723 0.9331 -0.9421 -1.0423 -6.0765 -2.1280 -3.0034 -5.2939 0.0288 -0.8342 5.7743 2.2799 -0.4118 6.5671 0.7591 -3.7193 -4.3386 0.5596 0.3876 0.1369 1.4562 0.7042 1.3244 1.0999 -1.1202 -1.6400 2.3190 -0.4429 3.3439 1.1455 2.0703 1.9100 0.6145 -2.4359 -2.2309 -1.6391 4.0557 2.1490 -0.8963 -2.3213 -5.6601 1.3549 -0.8896 5.5507 0.6917 0.1002 -2.4503
-1.1129 -2.2515 0.1619 -2.7401 -2.4472 -1.7044 2.6995 0.0640 -4.2477 -1.1122 1.3871 4.2175 -2.0977 3.8602 1.3060 1.1231 -0.6402 -1.4829 1.6203 -0.5689 -4.9186 0.7114 4.2796 0.9735 0.9190 -2.9699 -4.9750 -3.4508 1.2260 4.7525 0.0704 3.0278 1.2904 -1.0863 0.7793 -0.7807 0.0013 -1.4364 -3.3444 -2.6847 1.4337 2.5058 -3.1883 -0.5722 0.1688 4.8980 4.3790 1.8362 4.3929 -4.6942 -6.8007 -3.4624 -2.6708 6.5328 4.4097 3.8730 0.5663 4.0285 4.7817 2.7800 3.5134 -4.0185 -7.5617 4.1594 -4.8355 -5.3743 -2.6966 -1.7089 7.0783 -4.3016 -2.3683 5.3871 3.0869 3.7951 0.3358 2.6001 4.7152 2.5249 2.3384 -3.4213 -6.9531 3.0704 -4.2828 -4.8095 -2.6953 -0.3740 6.5077 -4.2939 -1.1346 4.8516 1.1911 -1.7650 -4.0973 -2.2551 0.9844 0.0777 -1.7247 1.4682 1.4250 -1.2895 -0.4087 -1.6073 -2.2726 1.3351 3.8212 -1.3069 2.9219 1.3247 0.0811 -0.8298 -2.1066 2.1448 4.2186 1.3599 2.1341 -3.5282 -5.6271 -3.4323 -0.1070 5.4130 -1.9896 -1.4957 -0.8070
0.5361 -2.7664 0.5697 -1.1136 -4.2595 -0.5396 3.7185 -3.8354 -3.8762 1.1254 -0.0029 2.8604 -2.5436 2.2846 0.5554 1.5360 -1.4943 -2.3346 2.5085 -4.4335 -3.4378 -0.5169 4.2664 1.0039 0.7416 -4.7035 -5.1250 -0.4923 -0.1840 4.6193 -0.3308 2.8343 1.0014 -0.7562 -0.5537 -1.1603 0.3660 -3.3103 -3.1821 -1.1326 0.2454 2.3638 -2.0456 -2.0441 0.6515 1.4627 6.2275 4.2602 -0.0621 -2.8602 -8.9022 -0.8547 3.5307 6.7222 2.2190 5.6923 3.1433 0.1262 6.0833 4.2948 -1.0506 -2.9551 -7.9948 1.2635 -3.3628 -8.5877 -1.9610 2.9397 6.2367 0.4473 2.9257 6.5057 1.5860 5.0502 2.1450 -0.5580 5.3852 3.2195 -0.7947 -3.5714 -6.7060 1.5032 -3.9328 -7.3932 -1.8537 1.6867 5.5122 0.5483 1.7670 5.8307 1.3612 -3.7402 -4.1363 -1.6555 -0.3950 -0.0098 -0.9317 0.5300 0.9650 -0.6979 -1.9736 -1.5210 -0.0535 0.0378 3.1988 -1.3868 1.9625 0.8074 0.5308 -2.1978 -2.3782 0.1440 4.8625 2.1968 0.4343 -4.0330 -6.4132 -0.6471 1.1293 5.3015 -0.7195 -2.8314 -0.2672
-1.1723 -1.7756 0.0661 -2.9118 -1.9063 -1.7035 0.4758 -0.4769 -6.3399 -0.4741 -0.8069 3.5298 -1.6067 3.4433 2.8329 0.8072 0.2879 -1.5039 0.3840 -1.5419 -5.4081 0.7658 4.2189 1.4277 1.4818 -2.1721 -3.2748 -2.4353 -0.6683 4.9054 0.2696 2.8738 1.5940 -1.4984 1.3920 -0.5853 -0.3346 -0.5585 -3.3291 -2.1028 0.7669 3.0203 -3.3512 -0.2681 0.3820 4.7625 4.5565 -0.0555 5.6396 -2.7490 -4.1029 -5.0364 -3.8735 3.7526 3.6426 4.3783 -0.9617 4.5538 4.5864 1.2728 4.7301 -3.5158 -4.7309 5.2078 -1.7434 -3.1473 -3.7850 -4.1677 4.1495 -5.4964 -2.4965 3.7640 2.4008 4.2081 -0.4733 3.2100 4.4196 1.7995 3.3161 -3.3196 -4.4716 3.8963 -1.5555 -2.9135 -2.8846 -3.1042 4.5621 -4.6641 -1.5128 4.1477 0.8243 -1.0436 -4.0491 -2.3751 1.2531 0.5799 -1.4690 1.2457 1.8118 -1.6162 0.2299 -1.4674 -1.5584 -0.2740 3.7451 -0.9800 2.6440 2.1430 -0.2439 0.0048 -2.0734 2.1781 4.1959 0.9646 2.9129 -2.3568 -3.6230 -3.2930 -1.8220 4.5200 -2.1697 -0.9962 -0.7565
-0.7575 -2.4035 0.6170 -2.6747 -2.8743 -0.8875 0.6988 -4.4867 -3.0034 -0.2229 0.5897 4.2641 -2.3215 3.5801 1.8124 0.9355 -0.6872 -1.4526 1.4356 -3.2762 -3.0636 0.2114 4.4742 0.8272 1.5446 -1.1860 -4.4443 -2.3477 0.4756 5.3756 -0.1004 3.1453 1.2913 -1.2538 0.5585 -0.4411 -0.4061 -1.6590 -3.0747 -2.1570 1.1284 3.0927 -2.9695 -0.9459 0.9549 4.3746 5.2733 0.2864 4.1547 -2.3606 -7.6242 -3.3341 -3.6832 5.6764 3.6028 4.6099 -0.7486 3.7967 5.5908 1.4586 2.8273 -2.3666 -7.8422 4.6767 -1.9623 -6.3292 -2.1118 -3.2769 6.0637 -4.3063 -2.7124 5.2064 2.3111 4.3028 -0.5334 2.3965 5.2777 1.6841 1.9156 -1.9787 -6.7805 3.8327 -1.6192 -5.3402 -1.7583 -1.8708 5.9880 -3.9755 -1.4115 5.1243 0.6460 -2.2632 -3.8684 -2.2451 0.6880 0.6278 -1.5087 1.2991 1.8152 -1.4693 -0.6967 -1.1578 -1.4422 0.7124 4.1972 -1.3911 2.7977 1.6420 -0.1727 -0.9999 -1.8827 1.6850 4.6410 0.7353 2.3971 -1.6460 -5.5691 -2.6380 -0.9786 5.4960 -1.8783 -1.7988 -0.1933
-0.8171 -2.0085 0.8534 -2.6954 -2.7720 -0.5791 0.7132 -4.1712 -2.7407 0.1506 -0.2670 3.7876 -1.8920 3.5679 2.5071 0.6392 -0.2244 -1.3194 1.3350 -2.8973 -2.7742 0.3274 4.4363 0.9299 1.3464 -0.8607 -4.2490 -1.6145 -0.1557 5.4111 -0.0142 3.0686 1.2356 -1.7061 0.8469 -0.3989 -0.5977 -1.4020 -2.8890 -1.7735 0.9401 3.2981 -3.1646 -0.7694 1.1456 4.2043 5.0004 -0.7838 4.2487 -2.0686 -7.1552 -3.6605 -3.9180 5.2566 3.0260 4.8782 -1.6228 4.0937 4.8918 0.5520 4.6135 -1.9739 -5.8640 2.8875 -1.7517 -7.5502 -2.3367 -3.9089 5.4956 -4.3772 -2.6657 5.0955 1.8255 4.6346 -1.0670 2.7933 4.6551 1.1545 3.6408 -1.5689 -4.8659 1.9815 -1.3915 -6.6233 -1.6207 -2.6472 5.5663 -3.7150 -1.4971 5.1598 0.5061 -1.9697 -3.6411 -2.4253 0.8688 0.8785 -1.3997 1.2626 1.9411 -1.7445 -0.4908 -0.9941 -0.9704 0.1367 4.0819 -1.1641 2.7591 1.9388 -0.4296 -0.6760 -1.7243 1.7055 4.5013 0.3767 2.3663 -1.3255 -5.2235 -2.2753 -1.4883 5.3645 -2.0105 -1.5782 0.0350
0.1580 -3.2056 0.6978 -2.0326 -3.0600 -0.4618 1.2403 -4.9088 -4.0046 1.9997 -0.5146 4.2376 2.5016 1.9247 1.7703 1.8738 -1.8867 -1.6384 1.8277 -3.6208 -4.0824 0.9714 4.1577 0.9681 1.3276 -1.3180 -4.8399 0.1825 -0.0337 5.7342 0.4301 2.9243 1.4903 0.3187 -0.1711 -0.1879 0.0482 -2.3106 -3.0019 0.1169 0.5840 3.4258 -1.4985 -1.2474 1.4490 -1.9921 6.7219 -0.7567 -1.1019 0.4646 -7.8819 -1.0072 -4.0237 6.7596 -1.4708 5.5854 -1.4943 -1.5552 6.9717 0.4904 -1.3762 0.7220 -6.5906 0.0053 -0.4088 -8.2284 0.2363 -3.6161 7.0714 -1.9323 -3.1046 6.1208 -0.5604 4.7734 -0.9275 -0.5682 6.0979 1.1012 -0.5682 0.1216 -5.5453 0.7473 -0.9768 -7.2606 0.6573 -2.2635 6.7502 -1.5414 -1.8544 5.8164 0.7383 -2.5822 -4.2474 -0.4621 0.1775 1.0009 0.5596 0.5613 2.0577 -0.3481 -1.2615 -0.8916 0.8767 -0.0441 4.3975 1.2728 1.8664 1.7700 0.6659 -1.8399 -1.8602 -0.1161 5.0187 0.4359 0.4364 -0.7153 -5.8645 -0.1838 -1.4266 6.1131 -0.8770 -2.2786 0.1080
0.4003 -2.7174 0.9785 -1.4200 -3.7266 -0.3737 1.7572 -4.5835 -3.1048 0.5657 0.3681 4.2717 -2.5360 2.7798 2.2868 1.5112 -0.8642 -1.2625 2.2926 -3.2717 -3.1320 -0.7875 4.1428 0.4682 2.0037 -1.1132 -4.2911 -1.2986 -0.1250 5.6993 -0.5153 2.9035 1.1561 -0.8546 -0.0294 -0.1512 0.2295 -1.9776 -2.8437 -1.5862 0.4767 3.4060 -2.0777 -1.8183 1.4142 2.6442 6.2505 -0.9699 0.5754 0.2216 -8.0931 -1.4053 -4.3876 6.1590 2.0557 5.1694 -1.7391 2.1343 6.5767 0.2311 1.6103 -0.6370 -8.0526 -0.0307 0.6890 -6.8594 -2.5563 -3.7116 5.9933 -0.1453 -3.6690 6.2208 1.0178 4.4744 -1.2399 1.0015 5.8379 0.7623 2.1068 -1.1153 -6.7745 0.4268 0.2461 -5.6755 -2.5340 -2.2684 5.8356 -0.1262 -2.3301 6.0954 1.2851 -2.3395 -3.7674 -1.7956 -0.0755 0.9678 -1.1727 0.7883 2.0597 -0.8175 -1.3351 -0.8017 -0.6497 0.2458 4.3920 -1.5160 2.2507 1.8537 0.4482 -1.3579 -1.6299 0.4852 4.8026 0.0738 1.5179 -0.7130 -5.6339 -1.3631 -1.6050 5.8439 -0.8812 -2.4519 0.2265
0.0088 -3.5169 0.3334 -1.7458 -4.2563 -1.2598 2.1033 -5.2710 -3.4874 0.2147 -0.7059 3.6779 -2.4881 2.2023 1.4610 1.5730 -1.6499 -1.7409 2.5544 -3.9292 -3.5630 -0.2048 3.4751 0.2018 2.1441 -1.8288 -4.8073 -1.8267 -1.0971 4.8886 -0.2432 2.1983 0.8756 -0.7775 -0.6653 -0.7984 0.3940 -2.7793 -3.3872 -1.8265 -0.2245 2.6760 -2.3866 -2.3426 0.5215 2.4680 6.2361 2.0960 0.7619 -0.7649 -8.7163 -1.2746 1.7737 8.0203 2.9626 5.2469 1.1557 1.1584 6.2815 2.3982 2.0110 -1.2425 -8.5709 -0.0952 -0.6068 -7.5553 -0.5945 0.6141 8.0697 -2.2065 2.0238 6.9357 2.1140 4.3663 0.5952 0.2399 5.3368 1.7862 2.4943 -1.6232 -7.2552 0.3548 -0.9495 -6.3357 -0.7771 -0.3791 7.0261 -2.3873 1.0992 5.9764 1.5061 -3.0917 -4.2633 -1.8490 -0.6336 0.1973 -1.2664 0.1106 1.3926 -0.8201 -1.9413 -1.5087 -1.0109 -0.6537 3.7039 -1.4375 1.6072 1.2418 0.5217 -2.0948 -2.1949 0.7006 4.3976 0.9393 1.6882 -1.5102 -6.1841 -1.6200 -0.1360 6.0054 -1.1354 -3.0755 -0.5469
-0.2363 -2.6087 0.3537 -2.0725 -3.4883 -1.0747 1.3221 0.6942 -4.6785 0.5259 0.2121 4.2128 -2.0397 2.5170 2.5665 0.8064 -0.3935 -1.6578 0.4693 -0.3471 -5.1285 0.2067 3.7835 1.3453 0.7033 -2.8316 -5.0941 -1.1136 -1.1440 5.3215 -0.0566 2.3664 1.3670 -1.6049 0.1910 -0.4933 -0.3172 -1.6453 -3.2502 -1.5384 -0.1255 3.1993 -2.7174 -1.7965 0.9019 4.0292 4.7817 -0.2895 4.0478 -3.3440 -7.7241 -4.1819 0.8726 7.5339 3.9215 4.1486 1.0121 2.9254 4.9997 -1.0263 4.1904 -3.6631 -6.4250 2.7828 -2.8222 -8.2077 -2.8965 1.0733 7.8762 -4.5116 -0.0464 6.4599 2.7156 3.7941 1.4905 1.6215 4.6250 -0.5071 3.0774 -3.4914 -5.5064 1.7536 -2.6582 -7.3580 -1.8356 0.3969 7.1497 -3.5316 -0.6825 5.7946 0.7120 -1.5641 -4.2623 -2.2343 -0.0506 0.8087 -1.2099 0.3476 1.8730 -1.4896 -1.0575 -1.2498 -0.6021 -0.2714 4.2020 -1.1782 1.8579 1.9920 -0.2037 -0.9732 -2.0496 1.5194 4.0356 0.6981 1.9106 -2.9881 -5.9497 -2.1380 -0.4210 6.1247 -1.5316 -2.2831 -0.3506
-1.3877 -2.4070 -0.0845 -2.8741 -2.7266 -2.0520 2.9160 -0.3978 -4.8005 -0.9829 -0.3149 3.7566 -2.1057 3.1581 1.6660 0.8463 -0.8426 -1.6052 1.5632 -0.6788 -5.1255 0.7248 3.5272 1.4496 0.9059 -3.0930 -5.0897 -3.2431 -0.2619 4.5680 0.0194 2.2744 1.3437 -1.4484 0.6205 -1.1059 -0.1303 -1.4852 -3.6059 -2.6742 0.5114 2.3892 -3.5316 -0.8309 -0.2658 4.9690 2.9908 1.5514 4.5802 -4.7592 -6.5400 -3.2967 2.8511 7.5124 4.1476 2.6302 2.6925 4.3954 3.4626 0.4302 3.7572 -4.1299 -7.3978 4.2125 -4.8831 -5.1404 -2.4742 1.8016 7.6889 -4.1466 2.9178 6.3371 2.8120 2.7754 2.6330 2.9531 3.6213 0.3653 2.5067 -3.5679 -6.9210 3.0525 -4.3650 -4.6980 -2.4370 0.7356 6.7035 -4.1057 1.9360 5.4188 1.1053 -1.8359 -4.2661 -2.5224 0.6695 -0.1062 -1.8306 0.7895 1.2502 -1.5480 -0.6062 -1.8972 -2.1577 -0.0265 3.5520 -1.3557 2.2115 1.4517 -0.1414 -0.9750 -2.3232 2.1885 3.2742 1.4168 2.1746 -3.6622 -5.6201 -3.1998 0.8122 5.5969 -2.2362 -1.7217 -1.1285
1.9457 -2.6371 0.0655 0.3413 -4.0631 -1.1916 4.0296 -1.2404 -5.4214 1.6322 0.1457 4.0670 -2.3049 1.0695 2.8147 1.8144 -0.1219 -2.0408 3.2614 -1.8233 -4.3813 -1.4154 3.4276 1.4724 1.2722 -2.2821 -5.7666 0.6674 -1.7254 5.2236 -0.7295 2.1597 1.5031 -0.2881 -0.4619 -0.3645 1.0491 -1.8328 -3.3996 -0.3470 -0.7926 3.2846 -0.5656 -2.7651 0.9699 0.5618 6.4065 -0.8753 -2.3195 -0.7766 -7.5392 -1.5059 -0.2146 8.5946 1.1384 5.9438 0.3737 -0.5722 5.8524 -1.3398 -1.1340 -0.3520 -8.0126 -2.3662 -1.7094 -6.4279 -0.1622 -0.1508 8.6017 -2.1989 -0.8040 7.4635 0.5315 4.9702 1.0755 -1.2320 4.8056 -0.5788 0.1009 -0.8306 -7.4156 -1.2243 -2.1520 -5.8738 0.5951 -0.6570 7.4705 -1.4986 -1.2818 6.4199 1.7988 -1.4853 -4.5881 -0.9115 -0.9872 0.8520 -0.3700 -0.1398 1.9990 0.0325 -1.5739 -1.2568 0.7249 -0.6758 4.1453 -1.2579 1.0738 2.1742 1.0585 -1.0658 -2.2532 -0.6949 4.3679 0.5748 0.0572 -1.6811 -6.3743 -0.0473 -1.1758 6.4079 0.5331 -2.7636 -0.4521
-1.6185 -2.3412 -0.2397 -2.9976 -2.4797 -2.3034 3.2557 -0.7073 -4.5710 -1.1936 -0.1580 3.7411 -1.9807 3.2060 1.7335 0.8519 -0.8326 -1.5396 1.8691 -0.7370 -4.8724 0.8481 3.4206 1.3656 1.0391 -3.0859 -5.0988 -3.5078 -0.1380 4.3870 0.0798 2.2010 1.3621 -1.3843 0.7256 -1.1947 -0.0136 -1.5225 -3.5741 -2.7941 0.5999 2.2345 -3.6082 -0.5848 -0.5041 5.0420 2.8374 1.9584 4.6654 -4.9478 -6.4364 -3.4842 2.9602 7.3488 4.4592 2.7668 0.6307 4.2536 3.0309 3.0306 3.9476 -4.2055 -7.2983 4.2073 -5.1156 -5.0686 -4.2911 3.0826 6.2794 -2.6722 1.7679 7.5126 3.1301 2.8961 0.4707 2.8204 3.1899 2.8571 2.7183 -3.5704 -6.8581 3.0675 -4.5287 -4.6603 -4.3261 2.0365 5.2730 -2.7134 0.7924 6.5878 1.2523 -1.9176 -4.1536 -2.4982 0.8277 -0.2444 -1.8728 0.8567 1.1499 -1.5037 -0.4894 -2.0047 -2.3566 0.0970 3.4447 -1.2994 2.2282 1.4400 -0.0916 -0.9529 -2.3177 2.2764 3.1077 1.6289 2.3013 -3.7092 -5.5858 -3.5418 0.9504 5.4018 -2.3357 -1.5575 -1.3124
0.6625 -3.1631 0.4883 -0.6904 -4.4144 -1.1758 3.2857 -3.5013 -3.9328 0.7059 -1.4346 3.6547 -2.5591 1.4152 2.3878 1.4897 -0.8373 -1.3630 3.1505 -2.1083 -3.7058 -0.7302 3.1674 1.0467 1.7872 -0.1643 -4.3969 -1.0538 -2.0983 5.1504 -0.5620 1.7482 1.2471 -1.1852 -0.7373 -0.6123 0.7584 -2.0510 -3.2016 -1.5064 -1.0528 3.0547 -1.9921 -2.9450 0.6591 1.9749 4.8781 -1.7957 -1.0099 1.1768 -7.3461 -0.4068 0.6765 8.3522 2.4142 4.5612 -0.4489 0.7141 4.6034 -2.1742 -1.4588 0.8544 -6.1200 0.4070 1.0797 -7.6502 -1.5994 0.6595 7.7302 0.6227 -0.2750 7.9737 1.5667 3.9753 0.4160 -0.2042 3.9799 -1.2368 -0.5259 0.4013 -5.1056 1.2695 0.6398 -6.7163 -1.8456 -0.2892 6.6592 0.3914 -1.1627 6.9902 1.7767 -1.6623 -4.1564 -1.9330 -1.1300 0.5867 -1.1978 -0.4892 1.7621 -0.6768 -1.9167 -1.3089 -0.4972 -1.4867 3.8912 -1.5422 0.9832 1.8533 0.6437 -1.5213 -1.9320 0.2105 3.6498 0.0005 0.7797 0.2627 -5.4011 -0.8773 -1.1423 6.2776 -0.5570 -3.1291 -0.4012

>  <OB_ATOM_TYPES> (1htfB1)
C.3 C.3 O.3 O.2 O.2 O.2 C.3 C.3 C.3 C.3 N.am N.3 N.am N.am S.3 C.ar C.ar C.ar C.ar C.ar C.ar C.ar C.ar C.ar C.ar C.ar C.ar C.ar C.ar C.ar C.3 C.3 C.3 C.3 C.2 C.2 C.2 C.ar C.ar C.ar C.3

>  <ENSEMBLE_RMSD> (1htfB1)
1.644 1.970 2.604 2.687 2.732 2.783 2.914 3.010 3.051 3.055 3.123 3.123 3.255 3.292 3.338 3.342 3.417 3.430 3.467 3.519 3.531 3.542 3.589 3.633 3.637 3.685 3.775 3.786 3.793 3.833 3.960 4.025 4.056 4.138 4.181 4.195 4.215 4.216 4.257 4.448 4.480 4.548 4.666 4.712 4.728 4.776 4.789 4.793 4.850 5.426

$$$$
