
 OpenBabel03071213D

  9  8  0  0  0  0  0  0  0  0999 V2000
    6.8330  -10.1290    7.0800 O   0  0  0  0  0
   12.3370  -10.7180    8.3070 O   0  0  0  0  0
   11.1740  -12.6660    7.0420 O   0  0  0  0  0
    8.3190   -8.5460    6.8640 O   0  0  0  0  0
   12.1980  -10.7140    5.7980 O   0  0  0  0  0
    9.1230  -10.6080    8.0370 C   0  0  0  0  0
   10.2180  -10.3770    7.1440 O   0  0  0  0  0
    8.1160   -9.8010    7.3670 C   0  0  0  0  0
   11.6140  -11.2290    7.0850 P   0  0  0  0  0
  1  8  1  0  0  0
  2  9  1  0  0  0
  3  9  1  0  0  0
  4  8  2  0  0  0
  5  9  2  0  0  0
  6  7  1  0  0  0
  6  8  1  0  0  0
  7  9  1  0  0  0
M  END
>  <MOLID> (1htiB1)
1htiB1

>  <SMILES_CANONICAL> (1htiB1)
OC(=O)COP(=O)(O)O	

>  <FINGERPRINT> (1htiB1)
0000000000000000000000000000000000000000000000000000000000000000000000000000000000000000000000000000000000000000000000000000000000000000000000000000000000000100000000000000000000000000000000000000000000000000010000000000000000000000000000000000000000000000000000000000000000000000000000000000000000000000000000000000000000000000000000000000000000000000010000000000000001000000000000000000000010000000100000000000000010000000000000100000000000100000000000000000000000000000000000000000000000001000000010000000100000000000000010000000000000100000000000000000000000000000000000000000000000000000000000000000000000000000000000000100000000000010000000000000000000000000000000000000010000000000000010100000000000000100000000000000000000000000000000000000000000000000000000000000000000000000000000000000000000000000000000000000000000000000000000100000000000000000000000000000000000000001000000000000000000000000000000000000000000000000000000000000000000000010000000000000000000000000000000000000000000000000000000001000000000000000

>  <MACCS166> (1htiB1)
000000000000000000000000000010000000000000100001000000000000000000000001000000000000000001000000000001010100000100000000001101000111000101110000010100001110101000010000

>  <OB_MW> (1htiB1)
155.982

>  <OB_logP> (1htiB1)
-0.8197

>  <OB_PSA> (1htiB1)
113.87

>  <OB_MR> (1htiB1)
25.5719

>  <OB_ATOMIC_CHARGES> (1htiB1)
-0.2428285866 -0.1145254957 -0.1145254957 -0.2428285866 -0.222372616 0.2668500869 -0.2579114271 0.395025305 0.5331168159

>  <MCT_HBD> (1htiB1)
3

>  <MCT_HBA> (1htiB1)
6

>  <ENSEMBLE_TOTAL> (1htiB1)
6

>  <ENSEMBLE_COORDS> (1htiB1)
-3.1594 0.4030 -0.1116 2.3446 -0.1860 1.1154 1.1816 -2.1340 -0.1496 -1.6734 1.9860 -0.3276 2.2056 -0.1820 -1.3936 -0.8694 -0.0760 0.8454 0.2256 0.1550 -0.0476 -1.8764 0.7310 0.1754 1.6216 -0.6970 -0.1066
-3.0494 0.6361 0.5248 2.6734 -0.2417 1.0948 1.4497 -2.1896 -0.1430 -1.5787 1.9282 -0.6486 1.8141 0.0261 -1.2199 -1.0511 -0.3712 -0.1350 0.1143 -0.0552 0.6066 -1.8861 0.8668 -0.1284 1.5137 -0.5997 0.0485
-2.0067 -0.1291 -0.9666 2.8127 -0.6001 0.6311 0.6868 -2.0085 0.0677 -2.1868 1.9350 -0.0103 1.4910 -0.1943 -1.4303 -0.8706 0.2124 1.0489 0.4629 0.5444 0.7088 -1.7462 0.7960 -0.0125 1.3567 -0.5560 -0.0368
-2.6768 0.7442 0.7727 1.8831 0.2307 1.2128 2.0842 -2.0716 0.0038 -1.1214 2.0451 -0.2762 1.5618 0.0129 -1.2420 -1.1741 -0.3316 -0.6663 -0.2509 -0.9183 0.2335 -1.6217 0.9540 -0.0496 1.3156 -0.6654 0.0113
-1.8623 1.8382 0.0144 2.7530 -0.6126 0.7816 0.8093 -1.8265 -0.4773 -2.1499 -0.1146 -1.1253 1.5598 0.4595 -1.1109 -1.0408 -0.1235 1.0144 0.3121 0.2843 1.0304 -1.7348 0.5020 -0.1557 1.3536 -0.4068 0.0284
-2.0678 0.2800 -1.2433 2.7700 -0.6795 0.6536 0.4915 -1.9003 0.2860 -2.3465 0.4263 1.0175 1.4244 -0.3303 -1.4052 -0.4101 1.4084 -0.0472 0.5383 0.6808 0.7132 -1.7041 0.6594 0.0055 1.3042 -0.5448 0.0199

>  <OB_ATOM_TYPES> (1htiB1)
O.co2 O.3 O.3 O.co2 O.2 C.3 O.3 C.2 P.3

>  <ENSEMBLE_RMSD> (1htiB1)
0.000 0.550 0.761 0.903 1.171 1.227

$$$$
