
 OpenBabel03071213D

 46 52  0  0  0  0  0  0  0  0999 V2000
   -9.9290   19.2740   26.9980 O   0  0  0  0  0
  -11.6920   18.2540   29.0200 O   0  0  0  0  0
   -7.9390   14.0390   27.9410 O   0  0  0  0  0
   -7.4760   17.9720   27.8940 C   0  0  0  0  0
  -11.7120   15.4510   28.0790 C   0  0  0  0  0
   -7.8540   15.3510   25.6960 C   0  0  0  0  0
   -9.2710   14.4910   30.2150 C   0  0  0  0  0
   -3.7300   17.5850   25.7230 C   0  0  0  0  0
  -13.3740   11.9820   30.0580 C   0  0  0  0  0
   -4.0290   16.6670   26.7500 C   0  0  0  0  0
   -4.6070   18.6600   25.4320 C   0  0  0  0  0
  -13.7000   13.2810   30.5420 C   0  0  0  0  0
  -12.5290   11.8140   28.9440 C   0  0  0  0  0
   -8.6260   16.5080   19.3490 C   0  0  0  0  0
  -10.4350   15.8370   36.4510 C   0  0  0  0  0
   -7.2630   16.5620   19.6620 C   0  0  0  0  0
  -11.2450   14.7480   36.0440 C   0  0  0  0  0
   -5.2260   16.8260   27.4940 C   0  0  0  0  0
   -5.8030   18.8110   26.1630 C   0  0  0  0  0
  -13.1670   14.4220   29.8980 C   0  0  0  0  0
  -11.9920   12.9540   28.3040 C   0  0  0  0  0
   -9.7690   15.7120   24.0220 C   0  0  0  0  0
   -8.5740   16.2520   31.9620 C   0  0  0  0  0
   -9.6080   16.3040   20.3490 C   0  0  0  0  0
   -9.5400   16.4750   35.5530 C   0  0  0  0  0
   -6.8600   16.4030   21.0060 C   0  0  0  0  0
  -11.1560   14.2820   34.7090 C   0  0  0  0  0
  -10.1950   15.9190   22.6940 C   0  0  0  0  0
   -8.6050   16.6910   33.2880 C   0  0  0  0  0
   -7.4080   15.9830   23.3460 C   0  0  0  0  0
  -10.2280   14.4920   32.4770 C   0  0  0  0  0
  -10.0290   17.9100   27.2980 C   0  0  0  0  0
  -10.4610   17.6450   28.7330 C   0  0  0  0  0
   -8.6270   17.3880   27.0110 C   0  0  0  0  0
  -10.6570   16.1520   28.9640 C   0  0  0  0  0
   -8.4610   15.9230   26.9050 N   0  0  0  0  0
   -9.4610   15.2940   29.0040 N   0  0  0  0  0
   -6.1240   17.8900   27.1930 C   0  0  0  0  0
  -12.3100   14.2480   28.7790 C   0  0  0  0  0
   -8.3810   15.7300   24.3360 C   0  0  0  0  0
   -9.3740   15.1480   31.5710 C   0  0  0  0  0
   -8.6110   15.0600   27.9540 C   0  0  0  0  0
   -9.2190   16.1520   21.6930 C   0  0  0  0  0
   -9.4550   16.0280   34.2120 C   0  0  0  0  0
   -7.8280   16.1920   22.0220 C   0  0  0  0  0
  -10.2720   14.9260   33.8000 C   0  0  0  0  0
  1 32  1  0  0  0
  2 33  1  0  0  0
  3 42  2  0  0  0
  4 34  1  0  0  0
  4 38  1  0  0  0
  5 35  1  0  0  0
  5 39  1  0  0  0
  6 36  1  0  0  0
  6 40  1  0  0  0
  7 37  1  0  0  0
  7 41  1  0  0  0
  8 10  1  0  0  0
  8 11  2  0  0  0
  9 12  1  0  0  0
  9 13  2  0  0  0
 10 18  2  0  0  0
 11 19  1  0  0  0
 12 20  2  0  0  0
 13 21  1  0  0  0
 14 16  2  0  0  0
 14 24  1  0  0  0
 15 17  1  0  0  0
 15 25  2  0  0  0
 16 26  1  0  0  0
 17 27  2  0  0  0
 18 38  1  0  0  0
 19 38  2  0  0  0
 20 39  1  0  0  0
 21 39  2  0  0  0
 22 28  2  0  0  0
 22 40  1  0  0  0
 23 29  1  0  0  0
 23 41  2  0  0  0
 24 43  2  0  0  0
 25 44  1  0  0  0
 26 45  2  0  0  0
 27 46  1  0  0  0
 28 43  1  0  0  0
 29 44  2  0  0  0
 30 40  2  0  0  0
 30 45  1  0  0  0
 31 41  1  0  0  0
 31 46  2  0  0  0
 32 33  1  0  0  0
 32 34  1  0  0  0
 33 35  1  0  0  0
 34 36  1  0  0  0
 35 37  1  0  0  0
 36 42  1  0  0  0
 37 42  1  0  0  0
 43 45  1  0  0  0
 44 46  1  0  0  0
M  END
>  <MOLID> (1hvrB1)
1hvrB1

>  <SMILES_CANONICAL> (1hvrB1)
O[C@@H]1[C@@H](O)[C@@H](Cc2ccccc2)N(C(=O)N([C@@H]1Cc1ccccc1)Cc1ccc2c(c1)cccc2)Cc1ccc2c(c1)cccc2	

>  <FINGERPRINT> (1hvrB1)
0000000000000000000000000001100000000001100000000101000000000000000000000001000000000001000000100000000000000001000011100000000000000000000010000000000010000000000000000000000000000000000000000000000000000000000000000000010000100010000000000011000000000100000000000010000000001000100000000000000000001000000010001100000000001001001100000000000000000000010000000000001110000000000000000000000000000000100110000000001000000000001000000000000000000000000000000000000000000100000000000000000000001000000000000000100000110000000000000100000000001000000000100000000000000000000000000000000011000000001000000100000000000000000000000000001000000001100000000000000000000001000000000001100000110101100001000001100000000111000000000000000011000000100000010101000000000000000110000000000000000001000000000000001111000000000000000000000000000000000000000000000000000000000000001001000000000000010000000000000000000100000000000000000100000010000000000000011000000000000000110010000000001110000000000000000010000000000000000000011000000000

>  <MACCS166> (1hvrB1)
000000000000000000100000010000000000100000000000010001000000000000000001001110000000100001100010101000001100011000001001110010111010000111110110110101011111111010111000

>  <OB_MW> (1hvrB1)
606.288

>  <OB_logP> (1hvrB1)
7.251

>  <OB_PSA> (1hvrB1)
64.01

>  <OB_MR> (1hvrB1)
192.758

>  <OB_ATOMIC_CHARGES> (1hvrB1)
-0.2185578216 -0.2185578216 -0.2523282275 0.0488819962 0.0488819962 0.1217105725 0.1217105725 -2.00181e-05 -2.00181e-05 -0.0003218312 -0.0003218312 -0.0003218312 -0.0003218312 -1.5e-09 -1.5e-09 -1.206e-07 -1.206e-07 -0.0042107877 -0.0042107877 -0.0042107877 -0.0042107877 -0.0026113257 -0.0026113257 -2.407e-07 -2.407e-07 -9.2177e-06 -9.2177e-06 -0.0002689783 -0.0002689783 -0.0026112056 -0.0026112056 0.2021005708 0.2021005708 0.1143813542 0.1143813542 -0.2586305888 -0.2586305888 -0.0204383867 -0.0204383867 -0.0022827604 -0.0022827604 0.3077274387 -1.83148e-05 -1.83148e-05 -0.0002598812 -0.0002598812

>  <MCT_HBD> (1hvrB1)
2

>  <MCT_HBA> (1hvrB1)
5

>  <ENSEMBLE_TOTAL> (1hvrB1)
50

>  <ENSEMBLE_COORDS> (1hvrB1)
-0.7430 2.9320 -1.2039 -2.6504 2.0230 0.5309 1.0433 -2.4067 0.1308 1.5775 1.6035 0.0279 -2.5723 -0.8017 -0.1958 1.5486 -0.9704 -2.0903 -0.4764 -1.6848 2.2432 5.2592 2.4129 -1.9982 -5.1946 -3.3996 1.9721 4.1108 3.2848 -2.1705 5.1945 1.3743 -1.1458 -5.3651 -1.9589 2.0227 -4.2241 -3.9369 1.2115 0.7054 1.1676 -8.1724 -0.1532 0.3740 8.3592 1.8121 1.7378 -7.6629 -0.9852 -0.8173 8.2681 2.9747 3.0453 -1.4917 3.9638 1.1058 -0.4238 -4.5570 -1.1588 1.3051 -3.3395 -3.0735 0.4494 -0.0933 -1.1401 -3.9942 0.5637 0.1849 3.5805 -0.1033 0.2819 -7.3531 0.4216 0.9370 7.2790 2.2124 1.4618 -6.2952 -1.2404 -1.4183 7.0907 -0.5193 -0.8855 -5.2457 0.7715 0.8361 4.8612 1.8699 0.3188 -4.1678 -0.8757 -1.4272 4.6767 -0.7946 1.5459 -0.8996 -1.3988 1.3525 0.4731 0.6047 0.9908 -0.9614 -1.6221 -0.1116 0.7684 0.6860 -0.4564 -1.0399 -0.4185 -0.8789 1.0383 2.8896 1.8943 -0.6072 -3.4871 -1.7377 0.5088 1.1096 -0.5262 -3.4437 -0.2497 -0.8838 3.4800 0.4667 -1.3152 0.0446 0.2559 0.0160 -6.0837 0.2031 0.3355 5.9740 1.4766 0.6369 -5.5283 -0.6578 -0.8642 5.8787
-0.5662 2.6521 -0.9855 -2.1803 1.6741 0.9574 1.6800 -2.5609 0.1548 1.9648 1.4908 -0.0284 -2.1245 -1.1541 0.0414 1.9813 -1.0767 -2.0503 0.0787 -2.1300 2.2588 4.5176 3.8625 -2.5194 -5.8625 -1.9444 1.9828 4.8631 2.4913 -2.1901 3.4074 4.4207 -2.0060 -4.6920 -2.7541 2.2689 -5.7825 -0.9311 1.1026 0.4104 0.6564 -8.1195 -1.0081 0.2723 8.1646 1.5145 1.3297 -7.7492 -2.2318 -0.2995 7.6232 4.0643 1.7720 -1.3816 2.5425 3.6425 -1.1376 -3.5261 -2.4931 1.6509 -4.5230 -0.6479 0.4371 0.2309 -1.5311 -3.8070 1.2793 -0.8887 4.0612 -0.2297 -0.2633 -7.1958 0.1408 0.2973 7.4612 2.0729 1.1444 -6.4217 -2.2873 -0.8373 6.3909 -0.3268 -1.3755 -5.0230 1.2833 -0.2863 5.3823 2.0246 0.0872 -4.2225 -1.0787 -1.3870 4.3411 -0.4942 1.2645 -0.6978 -0.9470 1.0135 0.7204 0.9259 0.7973 -0.8882 -1.1318 -0.4629 0.9569 1.1134 -0.6392 -0.9683 0.0947 -1.2170 1.1302 2.8428 2.3610 -0.8578 -3.4317 -1.3844 0.7148 1.4042 -0.7721 -3.3890 0.1419 -1.3959 3.5516 1.0018 -1.5256 0.1091 0.2792 -0.4474 -5.9641 0.1601 -0.2701 6.1224 1.4882 0.2966 -5.5560 -1.0843 -0.8506 5.5742
-0.0429 3.5711 -0.5936 -1.7645 2.3840 1.1597 1.9306 -1.8490 -0.2250 2.3690 2.1158 0.1196 -1.8339 -0.2927 -0.0666 2.1336 -0.1246 -2.2891 0.4100 -1.6390 1.9549 5.8224 3.5393 -1.9683 -4.9853 -2.2949 2.0381 5.8259 2.2471 -1.3072 4.7237 4.3147 -1.9340 -4.9581 -0.8469 1.9492 -4.0327 -3.0274 1.4332 -1.1471 -0.8281 -7.8592 -2.1716 -0.9452 7.8368 -0.4497 0.3209 -7.9120 -2.9751 -1.8573 7.0367 4.7302 1.8235 -0.6524 3.5418 3.8604 -1.2222 -3.9703 -0.2338 1.2717 -2.9652 -2.3647 0.7042 0.5176 -1.6984 -3.4029 0.8055 -0.3489 4.0664 -1.0863 -1.6664 -6.6750 -1.0775 -0.3344 7.3445 0.3595 0.7394 -6.7815 -2.6710 -2.1441 5.7566 -0.2450 -2.1189 -4.4295 0.4163 -0.0352 5.4306 1.2023 0.3755 -4.5187 -1.1400 -1.7876 3.8884 -0.0870 2.1520 -0.5337 -0.5527 1.7187 0.8375 1.2928 1.6225 -0.8292 -0.7861 0.2306 0.8966 1.3724 0.2018 -1.0981 0.4145 -0.5851 0.9546 3.5402 2.6569 -0.6195 -2.9190 -1.0207 0.6469 1.2278 -0.4233 -3.4336 0.0433 -1.1653 3.3158 1.2825 -0.7985 -0.1234 -0.3374 -1.2932 -5.6219 -0.6797 -0.6015 5.9702 0.4141 -0.0220 -5.6732 -1.4980 -1.5270 5.1577
-0.5163 2.7704 -1.1039 -2.2644 1.6701 0.7081 1.8384 -2.3649 0.1305 1.9906 1.6131 -0.1360 -1.9674 -1.1520 -0.0124 1.8963 -1.0303 -2.2066 0.3132 -1.8384 2.2885 5.4841 2.4934 -2.4473 -4.6518 -3.4184 2.4346 5.4750 1.4020 -1.4903 4.4047 3.2852 -2.5771 -4.9410 -2.0365 2.0966 -3.5620 -4.0225 1.9286 -0.7015 1.4855 -7.6287 -1.9756 0.6431 7.8092 -1.6960 0.9397 -6.9058 -3.0563 0.0218 7.0577 4.3779 1.1664 -0.7493 3.2153 3.0255 -1.7854 -4.1038 -1.3481 1.3003 -2.6561 -3.2793 1.0712 2.5341 0.1248 -4.3051 1.0866 -0.4901 4.2365 0.6692 1.4117 -7.1567 -0.7149 0.6965 7.3389 -1.4067 0.2641 -5.6532 -2.8581 -0.5428 5.8512 2.3114 0.7284 -5.4871 0.8187 0.1289 5.5227 0.1816 -0.4712 -3.9487 -1.2570 -1.0965 4.0910 -0.4573 1.3785 -0.8280 -0.9608 1.1211 0.5732 0.9645 0.9113 -1.0045 -1.0304 -0.3543 0.8759 1.1373 -0.5294 -1.0707 0.2487 -1.0042 1.1004 3.1938 1.9918 -0.9244 -2.8989 -1.9849 0.7948 1.4568 -0.4548 -3.5091 0.0882 -1.0590 3.5365 1.1218 -1.3578 0.0601 0.9512 0.7973 -5.9934 -0.4234 0.1087 6.0406 -0.1402 0.1865 -5.2052 -1.5196 -0.5304 5.2822
-0.8060 2.5120 -1.1723 -2.3800 1.6147 0.8377 1.5483 -2.5962 0.1733 1.7442 1.4391 -0.1523 -2.2788 -1.2598 0.1132 1.7829 -1.2157 -2.0899 -0.0011 -2.0990 2.2829 4.3536 3.7707 -2.6230 -5.9116 -1.9861 2.2649 3.1039 4.3216 -2.1282 4.7273 2.5284 -2.2682 -4.7214 -2.7760 2.5311 -5.8826 -1.0278 1.3216 0.9846 1.0090 -8.1349 -0.6376 0.2240 8.2717 2.1727 1.4349 -7.6673 -1.7953 -0.5883 7.9321 2.2946 3.5694 -1.3616 3.8566 1.7188 -1.4358 -3.5935 -2.5507 1.8335 -4.6676 -0.7888 0.5655 0.0634 -1.2368 -3.9486 1.2017 -0.6247 3.8850 0.0977 0.2196 -7.2932 0.3815 0.4172 7.4135 2.5909 1.0820 -6.3245 -1.9414 -1.1525 6.7162 -0.3744 -0.9235 -5.1834 1.2987 -0.0156 5.1960 2.1777 -0.0189 -4.1933 -0.9866 -1.4934 4.4921 -0.7096 1.1419 -0.8072 -1.1335 0.9657 0.6311 0.7194 0.7023 -0.9918 -1.2790 -0.4985 0.9611 0.9279 -0.7331 -1.0184 -0.0285 -1.2237 1.1272 2.6766 2.2093 -1.0175 -3.5568 -1.4982 0.8321 1.3430 -0.7567 -3.4351 0.1028 -1.3209 3.5410 0.8529 -1.5706 0.0952 0.4765 -0.1176 -6.0471 0.3107 -0.1839 6.0914 1.7851 0.3399 -5.5406 -0.8899 -0.9639 5.7250
-0.5943 2.5400 -1.1373 -2.3016 1.5646 0.7625 1.5257 -2.7145 0.0409 1.8694 1.3009 -0.1387 -2.2148 -1.2681 0.0774 1.7558 -1.3165 -2.2311 0.1327 -2.0902 2.2500 5.0074 3.0016 -2.5072 -5.0183 -3.2407 2.6442 3.6833 3.5967 -2.4938 5.2663 1.9182 -1.7535 -5.1234 -1.8162 2.3840 -4.0365 -3.9604 2.0725 -0.0107 1.8402 -7.6500 -1.5190 0.9658 7.7026 -1.0946 1.2168 -7.1536 -2.5930 0.0777 7.2816 2.7174 3.0698 -1.7209 4.2157 1.3339 -0.9403 -4.2413 -1.2151 1.5663 -3.0837 -3.3106 1.1917 2.7111 0.0502 -4.0780 1.1225 -0.5313 3.9359 1.2751 1.7118 -6.9858 -0.3544 1.0496 7.0320 -0.9840 0.3964 -5.9609 -2.4973 -0.6845 6.1756 2.6593 0.8099 -5.1880 0.9810 0.2671 5.1407 0.3370 -0.5475 -4.1401 -1.1362 -1.3531 4.2633 -0.5723 1.1500 -0.8396 -1.0393 0.9389 0.5815 0.8353 0.6428 -1.0308 -1.1782 -0.5284 0.8974 0.9717 -0.8012 -1.1147 0.0637 -1.2598 1.0592 2.9852 1.8773 -0.9347 -3.1726 -1.9887 0.9573 1.5296 -0.5938 -3.5143 0.0920 -1.2733 3.4909 0.8855 -1.6540 -0.0041 1.3876 0.9586 -5.8758 -0.1688 0.2392 5.8387 0.2012 0.2591 -5.3410 -1.2770 -0.6292 5.3881
-1.2794 2.8642 -1.4569 -3.2638 1.9197 0.1743 0.7539 -2.2285 0.3811 0.9998 1.7840 0.0580 -2.9283 -0.9393 -0.3023 1.3778 -0.9093 -1.8578 -0.9802 -1.4724 2.3150 4.9282 2.6358 -1.4116 -6.1159 -3.0153 1.6628 3.7875 3.4199 -1.8492 4.7652 1.6575 -0.5033 -4.8122 -3.6327 1.5001 -6.3412 -1.7793 1.1830 1.6859 0.7129 -8.1310 1.4582 0.1094 8.0871 2.6059 1.4250 -7.4557 0.4040 -0.8835 8.2320 2.5622 3.1578 -1.3603 3.4420 1.3673 0.0182 -3.8247 -2.9647 0.8778 -5.2738 -1.0556 0.5152 0.1350 -1.2964 -4.0109 0.7103 0.1228 3.3105 0.7835 -0.1760 -7.4208 1.8000 0.6217 6.8896 2.7050 1.3085 -6.0117 -0.2945 -1.3440 7.1770 -0.0138 -1.1879 -5.3450 1.4064 0.6285 4.4783 1.9815 0.3123 -3.9044 -0.6381 -1.2711 4.7601 -1.2620 1.4973 -1.0693 -1.9661 1.3481 0.2611 0.1754 1.0466 -0.9826 -2.1049 -0.1004 0.6579 0.3617 -0.3948 -0.9565 -0.8760 -0.7541 1.0613 2.3794 2.0702 -0.4135 -4.0574 -1.6156 0.3885 1.1418 -0.5368 -3.2785 -0.2831 -0.7784 3.4369 0.1084 -1.1932 0.1677 0.8653 -0.2950 -6.0831 1.0955 0.1650 5.7024 1.8757 0.4874 -5.3422 0.0198 -0.8376 5.8504
-1.1800 2.7988 -1.4791 -3.2111 1.9629 0.1412 0.6699 -2.2983 0.5377 1.0602 1.7317 0.0994 -2.9386 -0.9184 -0.3127 1.4429 -1.0231 -1.6773 -1.1053 -1.4586 2.3964 4.5348 3.4167 -1.7470 -6.5776 -2.4317 1.3609 4.6129 2.1762 -0.9974 3.3682 4.0808 -1.8321 -5.3190 -3.1280 1.5638 -6.6126 -1.3036 0.6287 1.8974 0.3472 -8.0058 1.7752 -0.2680 8.0626 2.9317 0.9192 -7.3627 0.6355 -1.1551 8.2409 3.5132 1.6756 -0.4068 2.1795 3.5374 -1.2000 -4.1845 -2.6393 1.0316 -5.3881 -0.7733 0.0563 0.1460 -1.3256 -3.8174 0.7642 -0.0381 3.3362 0.8823 -0.3766 -7.2615 2.1012 0.2397 6.8586 3.0412 0.8173 -5.9191 -0.1587 -1.5165 7.2160 -0.0128 -1.2208 -5.1504 1.5712 0.3609 4.4731 2.2076 0.0018 -3.7765 -0.6222 -1.3488 4.8264 -1.1985 1.4449 -1.0503 -1.9352 1.3498 0.2671 0.2276 0.9713 -0.9153 -2.1369 -0.0888 0.6760 0.3990 -0.4689 -0.8334 -0.9408 -0.7716 1.1299 2.2428 2.3682 -0.5381 -4.2174 -1.3997 0.2720 1.2616 -0.6967 -3.1178 -0.2968 -0.8532 3.4964 0.0659 -1.2455 0.2824 0.9741 -0.4834 -5.9233 1.2903 -0.1103 5.7021 2.1069 0.1501 -5.2177 0.1328 -1.0086 5.8862
-0.2560 3.1683 -0.9137 -1.9571 2.0026 0.8839 2.0509 -2.0656 -0.0435 2.2478 1.9684 0.0003 -1.7606 -0.7740 -0.0532 2.2344 -0.4919 -2.2202 0.5516 -1.6945 2.1435 5.6836 3.2875 -2.1897 -4.7284 -2.9071 2.1827 4.4340 4.0227 -2.2603 5.7775 2.1889 -1.4198 -4.8839 -1.4913 1.9028 -3.6486 -3.5690 1.7305 -1.4272 0.0026 -7.5831 -2.3653 -0.3595 7.7566 -1.9190 -0.9954 -6.8274 -3.0017 -1.5009 7.1155 3.3649 3.6026 -1.5606 4.6237 1.7319 -0.6672 -3.9445 -0.8373 1.1962 -2.6374 -2.8654 0.9617 2.0615 0.8176 -4.3349 0.7334 -0.0752 4.0501 -0.2535 0.7389 -7.1496 -1.3231 0.2860 7.1994 -1.2806 -1.3437 -5.5707 -2.5897 -1.9724 5.9235 1.5129 1.1590 -5.5160 0.2398 0.4173 5.3240 0.4580 -0.9862 -3.8966 -1.0144 -1.7564 4.0724 -0.1927 1.7626 -0.7174 -0.6773 1.4241 0.6734 1.2326 1.3165 -0.9186 -0.7851 -0.0673 0.8676 1.4213 -0.1125 -1.0775 0.4782 -0.7681 1.0246 3.4601 2.4028 -0.7444 -2.7689 -1.5482 0.7201 1.5131 -0.2467 -3.5005 0.1103 -1.0951 3.4314 1.3563 -1.0393 -0.0328 0.3456 0.4298 -5.9852 -0.8138 -0.1741 5.9173 -0.1937 -0.6680 -5.1558 -1.4691 -1.3247 5.2613
-0.3582 2.6616 -0.7526 -2.1410 1.6318 1.0418 1.3781 -2.8194 -0.0886 2.0202 1.1564 0.0932 -2.2928 -1.1052 0.0071 1.7501 -1.2049 -2.1939 -0.0640 -2.3656 2.1273 5.0532 3.2714 -2.0746 -5.4328 -2.7817 2.3925 3.8812 3.9626 -1.5686 5.2108 1.9557 -1.8442 -5.3709 -1.3521 2.1459 -4.5361 -3.6024 1.8172 0.2576 1.5832 -7.8760 -0.7070 1.1889 7.5204 1.2992 2.2391 -7.3340 0.5068 1.5846 6.8220 2.9452 3.2859 -0.8790 4.2010 1.2232 -1.1002 -4.4031 -0.8452 1.3610 -3.4805 -3.0554 0.9825 0.0888 -1.4057 -4.0738 -1.5238 -2.1304 4.1030 -0.3488 0.4648 -7.1754 -1.5020 0.2016 7.0654 1.8355 1.8247 -6.0503 0.9055 0.9881 5.6830 -0.4393 -1.0516 -5.2622 -1.8989 -1.4786 5.3424 1.8053 0.3444 -4.1119 0.4442 -0.7165 3.9895 -0.4393 1.2516 -0.5999 -0.9393 0.9196 0.7866 0.9278 0.6614 -0.8374 -1.2167 -0.5552 0.9233 0.9591 -0.7745 -1.0530 -0.0459 -1.4048 1.0323 3.0993 1.8562 -0.6570 -3.3975 -1.7267 0.7883 1.2060 -0.6836 -3.4775 -0.4184 -1.7491 3.4362 0.7957 -1.7276 -0.0395 0.1369 0.0709 -5.9843 -1.1360 -0.4897 5.8394 1.2877 0.7853 -5.3951 0.0975 -0.0873 5.1285
-0.7639 3.2602 -1.2332 -2.9378 2.2446 0.0841 0.9307 -2.0400 0.3536 1.3422 1.9834 0.3577 -2.6206 -0.5580 -0.6479 1.7952 -0.5526 -1.7214 -1.0082 -1.3871 2.1430 5.1826 3.3458 -0.9588 -5.5888 -3.2626 0.8406 3.9793 4.0913 -1.2818 5.1020 2.2234 -0.2222 -5.8398 -1.8331 0.8001 -4.4209 -3.7540 0.3899 0.1179 -0.3748 -8.0094 1.0135 -0.4159 8.2083 -0.4906 -1.4312 -7.4413 0.0221 -1.4803 8.1624 2.7824 3.6611 -0.8445 3.8098 1.7534 0.2444 -4.9036 -0.9975 0.3160 -3.4084 -2.8527 -0.1304 2.1367 0.8109 -3.7795 0.5219 0.1644 3.4335 0.9619 0.4966 -7.2129 1.3845 0.2645 7.1071 -0.3058 -1.7113 -6.0281 -0.5823 -1.8471 7.0166 1.9884 1.1029 -5.0847 1.1187 0.5572 4.6961 0.6817 -1.1639 -3.8608 -0.7884 -1.4970 4.6083 -0.8274 1.8648 -0.9743 -1.6721 1.6216 0.2562 0.5766 1.3489 -0.7878 -1.8964 0.1477 0.4865 0.7229 -0.0932 -0.8569 -0.7411 -0.5828 0.9679 2.6925 2.4319 -0.0733 -3.6306 -1.5259 -0.1448 1.4647 -0.3237 -3.1548 -0.3994 -0.8172 3.3811 0.3338 -0.9726 0.1603 1.1421 0.2503 -5.9027 0.7780 -0.0797 5.8307 0.4724 -0.9100 -5.2775 -0.2284 -1.1609 5.7844
0.2460 3.4410 -0.5859 -1.5081 2.3686 1.1945 1.8566 -2.1019 -0.2678 2.5892 1.8138 0.0960 -1.8058 -0.2793 -0.1053 2.1906 -0.3820 -2.3065 0.3021 -1.8375 1.8849 5.6205 4.2153 -1.7490 -5.1338 -2.0348 1.9481 4.5255 4.8255 -1.0182 5.6952 2.8770 -1.8595 -4.1038 -2.8648 1.3516 -5.0654 -0.6960 1.8438 -1.3289 -0.7769 -7.7635 -2.1011 -0.7630 7.7892 -0.6455 0.3807 -7.7740 -3.0382 -1.5523 7.0025 3.5760 4.0532 -0.4599 4.6717 2.0419 -1.2522 -3.0737 -2.2958 0.6991 -3.9515 -0.0808 1.1431 0.5532 -1.9085 -3.4534 0.9155 -0.6543 4.0045 -1.2041 -1.6886 -6.6398 -0.9203 -0.3489 7.2918 0.2163 0.7326 -6.6593 -2.7796 -1.9045 5.7286 -0.2566 -2.2703 -4.4657 0.5956 -0.3028 5.3758 1.1789 0.2320 -4.4745 -1.2270 -1.7851 3.8462 0.1220 2.0272 -0.5312 -0.3612 1.6119 0.8401 1.4645 1.4125 -0.8413 -0.7218 0.1480 0.8668 1.4474 -0.0100 -1.1185 0.4072 -0.7631 0.9105 3.6396 2.6077 -0.5983 -2.9824 -0.8478 0.6090 1.2625 -0.6318 -3.4437 0.0309 -1.3475 3.2625 1.2775 -1.0130 -0.1566 -0.4086 -1.3749 -5.6000 -0.5712 -0.6932 5.9228 0.3331 -0.0993 -5.6083 -1.5291 -1.4801 5.1209
-0.0268 3.1399 -0.5204 -2.0518 2.0228 0.9179 1.4646 -2.4376 -0.1763 2.1638 1.4409 0.4845 -2.1310 -0.5926 -0.4296 2.0790 -0.6379 -2.0997 -0.2950 -2.1575 1.8326 5.4334 3.8951 -0.7975 -5.7467 -2.2645 1.1495 5.4772 2.4526 -0.9596 4.3635 4.4773 -0.2271 -5.6262 -0.8361 0.9179 -4.7248 -3.0851 0.8472 -0.7491 -0.1371 -7.9382 -0.2291 0.4698 7.7587 -0.0156 0.9689 -7.7205 1.0858 0.6026 7.1504 4.4410 1.6973 -0.5522 3.2459 3.6612 0.2131 -4.4880 -0.3310 0.4088 -3.4976 -2.5396 0.2952 0.5199 -1.8997 -3.6178 -1.7864 -1.7665 3.7653 -0.8161 -1.1812 -6.9319 -1.2546 -0.1277 7.1219 0.7124 1.1288 -6.4746 1.3560 0.1325 5.9174 -0.1822 -2.0801 -4.7520 -2.0305 -1.2564 5.1008 1.3819 0.2984 -4.2784 0.5112 -1.0057 3.9294 -0.1632 1.7266 -0.5248 -0.8531 1.2823 0.7442 1.2071 1.1078 -0.6472 -1.1961 -0.1843 0.6926 1.2123 -0.3017 -0.9865 -0.0766 -1.0904 0.8703 3.2694 2.3280 0.0341 -3.3733 -1.2135 0.1056 1.2932 -0.6880 -3.3649 -0.5764 -1.6277 3.1940 0.9028 -1.3364 -0.0974 -0.1443 -1.0472 -5.7737 -1.0405 -0.6553 5.7836 0.6576 0.1703 -5.5320 0.2971 -0.5225 5.1671
-0.9452 3.0651 -0.8104 -2.8435 1.7681 0.6557 1.3796 -2.1489 0.1227 1.3936 1.8659 0.4835 -2.3731 -0.9438 -0.4593 1.9003 -0.4079 -1.8622 -0.4833 -1.9104 2.0790 4.9371 3.9090 -0.7749 -6.3694 -2.1260 0.5342 3.6339 4.5349 -0.9096 5.0412 2.6669 -0.2685 -5.2282 -2.8020 1.1238 -6.1788 -1.1125 -0.3297 0.2784 -0.5403 -8.1508 0.7782 0.1316 8.0889 0.9715 0.5865 -7.9077 -0.6557 -0.0497 7.9131 2.5276 3.8760 -0.5202 3.8477 1.9571 0.1551 -3.9792 -2.4148 0.8090 -4.8302 -0.6933 -0.6680 0.5701 -1.7903 -3.4898 1.4509 -1.2345 3.5014 -0.0246 -1.4609 -7.0700 1.6525 -0.0983 7.0911 1.4231 0.8925 -6.5614 -1.1897 -0.4431 6.7424 0.1156 -2.0997 -4.7188 1.9829 -0.7839 4.7732 1.5957 0.3217 -4.1951 -0.7896 -1.0874 4.4188 -0.8545 1.6532 -0.6797 -1.5340 1.2219 0.6016 0.6052 1.2713 -0.6699 -1.6303 -0.2812 0.6873 0.8746 -0.1394 -0.8731 -0.3834 -0.9549 0.9932 2.6381 2.5312 0.0207 -3.7713 -1.3028 -0.1036 1.3045 -0.5594 -3.2178 0.1222 -1.3527 3.3197 0.6618 -1.1411 0.0807 0.3897 -1.1909 -5.8187 1.1499 -0.5337 5.7987 1.1459 0.0502 -5.5496 -0.3075 -0.6995 5.6150
-0.4572 3.5998 -0.7904 -2.6072 2.3963 0.4089 1.3088 -1.8398 0.0303 1.6503 2.0852 0.5439 -2.2636 -0.2637 -0.8008 2.0372 -0.0911 -1.9326 -0.6569 -1.4871 1.8727 5.4761 3.7815 -0.3318 -6.0273 -2.0926 0.0947 5.3482 2.3930 0.0720 4.3820 4.5546 -0.4540 -5.9278 -0.6600 -0.1155 -4.9303 -2.8661 0.0062 -0.7673 -1.4163 -7.6593 0.6487 -0.7785 8.1757 -0.7515 -0.0815 -7.4923 -0.2669 -1.8905 7.9629 4.1338 1.8748 0.3246 3.0696 3.9996 -0.1724 -4.7378 -0.1035 -0.4007 -3.6433 -2.2656 -0.2985 1.4088 -2.0282 -3.3822 0.7174 -0.0144 3.4006 -0.2098 -2.2879 -6.6403 1.1240 -0.0407 7.1541 -0.1707 0.4996 -6.2958 -0.7039 -2.2345 6.7372 0.8896 -2.6072 -4.4814 1.1514 0.3365 4.7390 0.9331 0.2594 -4.1324 -0.6573 -1.7697 4.3404 -0.5268 2.1806 -0.7555 -1.3425 1.7502 0.4439 0.8808 1.6420 -0.6874 -1.5690 0.2586 0.4436 1.0156 0.2228 -0.9514 -0.4105 -0.5291 0.8131 2.9501 2.7076 0.1848 -3.5463 -0.9344 -0.4687 1.4061 -0.5810 -3.1903 -0.1721 -1.0061 3.2003 0.6768 -0.7792 -0.0334 0.3280 -1.7631 -5.5234 0.7021 -0.3597 5.7983 0.3502 -0.2951 -5.3432 -0.2427 -1.4758 5.5867
-0.0874 3.7168 -0.3843 -1.9229 2.2753 1.0561 2.0634 -1.6497 -0.4062 2.3191 2.2446 0.3479 -1.7031 -0.2470 -0.4437 2.2076 0.2546 -2.3552 0.3963 -1.6648 1.7049 5.9233 3.9155 -1.2468 -4.6451 -3.0376 0.9298 5.8833 2.5481 -0.7609 4.8163 4.6778 -1.2061 -4.8051 -1.6144 1.1671 -3.5698 -3.4925 0.2625 -2.1024 -1.7055 -6.8250 -1.8548 -0.6334 7.6762 -1.8478 -2.7349 -5.9979 -2.9180 -1.1398 6.8210 4.7383 2.0408 -0.2704 3.5815 4.1346 -0.6685 -3.8769 -0.7485 0.7223 -2.5646 -2.5596 -0.2141 1.0027 1.0903 -4.3859 1.1749 -0.7844 3.9059 -1.4209 -0.4365 -6.6436 -0.6094 -0.4099 7.2151 -0.8912 -2.5859 -4.9163 -2.7193 -1.4120 5.5176 0.1464 0.9838 -5.4199 0.9105 -0.4850 5.3018 0.6844 -1.2257 -3.6458 -1.1428 -1.4561 3.6544 -0.0851 2.2997 -0.4785 -0.6461 1.7104 0.7968 1.3294 1.8375 -0.7274 -0.8025 0.2140 0.6873 1.4630 0.4513 -1.1259 0.4350 -0.5404 0.7871 3.5393 2.8624 -0.2340 -2.7022 -1.2429 0.0228 1.2577 -0.0181 -3.4727 0.1852 -1.2270 3.1094 1.3734 -0.6336 -0.2491 -0.5379 -0.2805 -5.6406 -0.3173 -0.6834 5.8168 -0.2598 -1.4125 -4.7325 -1.3987 -1.1959 4.9485
-0.5507 2.6886 -0.9726 -2.5094 1.8029 0.7021 0.9558 -2.7949 0.0988 1.6907 1.1644 0.2047 -2.6464 -0.9836 -0.1878 1.5728 -1.2779 -2.0237 -0.6783 -2.2011 2.1430 4.7925 3.5292 -1.5691 -6.0095 -2.5557 1.9487 3.6498 4.1532 -0.9269 4.9019 2.1889 -1.5938 -4.9236 -3.4213 1.5255 -5.9879 -1.2464 1.6421 0.9733 1.1178 -8.0380 0.7523 0.8734 7.6637 2.1908 1.4330 -7.5615 1.9661 0.6684 6.8877 2.6868 3.3915 -0.3778 3.8650 1.3663 -0.9946 -3.8886 -2.9122 0.8335 -4.8692 -0.6961 0.8976 -0.1148 -1.1472 -3.9034 -1.7809 -1.3068 4.1710 0.0364 0.3705 -7.2162 -0.4526 0.4555 7.2327 2.5771 1.0336 -6.2202 1.9556 0.0532 5.6897 -0.5210 -0.7769 -5.1325 -1.7208 -0.6415 5.4582 2.0770 -0.0669 -4.1018 0.6203 -1.0307 3.9553 -0.6761 1.2921 -0.7491 -1.3106 1.0482 0.5999 0.6934 0.6673 -0.8220 -1.6386 -0.4105 0.7879 0.7050 -0.7760 -0.9733 -0.5079 -1.2861 1.0286 2.7850 1.9426 -0.4358 -3.8483 -1.4910 0.5286 1.1880 -0.7657 -3.3676 -0.6639 -1.4756 3.4401 0.4130 -1.6811 0.0529 0.3840 -0.0091 -5.9723 -0.5414 -0.2138 5.9432 1.7179 0.3456 -5.4467 0.6899 -0.4182 5.1513
-0.3932 2.7834 -0.8953 -2.0550 1.5724 0.8778 2.1652 -2.3118 0.1070 2.1485 1.7245 0.1264 -1.6964 -1.2030 -0.1725 2.3601 -0.7414 -2.0678 0.4527 -2.0800 2.1641 4.7754 4.3309 -2.0326 -5.6200 -1.9347 1.3823 3.4925 4.8032 -1.5452 5.1603 3.0644 -1.7976 -4.4732 -2.6605 1.8981 -5.4625 -1.0496 0.3815 -1.0553 -0.1834 -7.5853 -1.5699 -0.0104 7.9503 -1.6033 -1.1668 -6.8484 -2.6286 -0.7593 7.2882 2.6902 3.9763 -0.8514 4.2952 2.1700 -1.0494 -3.2506 -2.4424 1.3826 -4.1418 -0.8067 -0.1687 2.3037 0.5629 -4.1863 1.2746 -0.7343 4.1021 0.1190 0.5257 -7.1020 -0.3703 0.1957 7.3730 -1.0312 -1.5241 -5.5639 -2.4726 -1.2823 6.0576 1.8171 0.9110 -5.3943 1.0557 -0.1736 5.4242 0.6370 -1.1982 -3.8122 -0.9925 -1.6009 4.1431 -0.2492 1.3865 -0.6871 -0.7610 1.0213 0.6860 1.2053 1.0184 -0.8283 -0.8366 -0.4766 0.8458 1.4809 -0.3982 -0.9672 0.4393 -1.1303 1.0663 3.0980 2.6015 -0.6115 -3.0734 -1.4535 0.3315 1.6977 -0.4907 -3.3777 0.2860 -1.3996 3.4756 1.4079 -1.3321 0.0753 0.6543 0.2079 -5.9100 -0.1259 -0.3446 6.0463 0.0496 -0.8696 -5.1005 -1.2038 -1.0973 5.3701
-1.1317 2.6135 -1.0637 -3.1360 1.5161 0.4665 0.8926 -2.6270 0.2897 1.1512 1.3675 0.3302 -2.8090 -1.2989 -0.2802 1.4424 -1.1275 -1.8773 -0.8355 -2.0393 2.2970 5.0607 2.3767 -1.0948 -6.2032 -3.1676 1.5450 4.8515 1.2275 -0.2327 4.0235 3.1639 -1.4319 -4.9195 -3.8436 1.4936 -6.3452 -1.9472 0.9977 1.2138 1.4671 -7.8375 1.5827 1.5286 7.1386 2.3156 1.9179 -7.2110 2.6488 1.1651 6.2170 3.6172 0.9393 0.2174 2.6905 2.8544 -0.9462 -3.8675 -3.2465 0.9054 -5.2082 -1.2989 0.3688 -0.0202 -1.1099 -3.9333 -1.5658 -0.8587 4.3506 0.3005 0.5680 -7.1551 0.3047 1.1549 6.9387 2.5981 1.5115 -5.8461 2.4216 0.4233 5.1166 -0.3341 -0.7328 -5.1874 -1.2774 -0.0512 5.5214 2.0261 0.2378 -3.8437 0.7866 -0.7807 3.7611 -1.1276 1.2168 -0.8076 -1.8405 0.9349 0.4961 0.3040 0.7453 -0.7655 -1.9809 -0.5466 0.7447 0.4722 -0.6916 -0.8863 -0.7530 -1.2346 1.0927 2.4911 1.7725 -0.1717 -4.0115 -1.9129 0.3436 1.1550 -0.5949 -3.2386 -0.5823 -1.1931 3.4954 0.2372 -1.5840 0.1684 0.5528 0.1790 -5.8919 -0.0186 0.3544 5.7683 1.7597 0.6791 -5.2021 1.0674 -0.0276 4.8401
-0.9193 2.8401 -1.5599 -3.0718 2.1403 -0.0307 0.5698 -2.2979 0.6541 1.1709 1.6821 0.1789 -2.9455 -0.7616 -0.4145 1.4794 -1.1124 -1.5799 -1.3031 -1.3407 2.3859 4.5473 3.6848 -1.5267 -6.6344 -2.1080 1.2951 3.2826 4.3733 -1.3526 4.6795 2.4060 -1.1322 -5.4388 -2.9281 1.3639 -6.5993 -0.9165 0.6724 1.6649 0.1520 -7.9580 2.0092 -0.5467 7.8895 2.7075 0.7608 -7.3650 1.5191 -1.9122 7.7801 2.2348 3.7287 -0.8082 3.5496 1.7098 -0.5428 -4.2908 -2.4936 0.8120 -5.3600 -0.4453 0.0794 0.1538 -1.5452 -3.6838 -0.0562 0.4647 3.6306 0.7079 -0.5998 -7.1646 1.7812 0.3741 6.9338 2.8849 0.6687 -5.9269 0.8181 -2.3395 6.7127 -0.0622 -1.4619 -5.0106 0.7311 0.8736 4.7796 2.1699 -0.1533 -3.7414 -0.1647 -1.7737 4.5511 -1.0254 1.5000 -1.1024 -1.8402 1.4621 0.1706 0.3637 0.9552 -0.8794 -2.1344 0.0432 0.5826 0.4460 -0.4911 -0.7679 -1.0109 -0.6943 1.1213 2.3681 2.3384 -0.4078 -4.2445 -1.1920 0.1667 1.2731 -0.8716 -3.0356 -0.4618 -0.8132 3.4988 0.0289 -1.2262 0.3485 0.8626 -0.6955 -5.8310 1.0171 -0.0089 5.7561 2.0086 -0.0276 -5.1800 0.5338 -1.4013 5.6385
-0.9878 2.9985 -1.5718 -3.2302 2.4977 -0.0954 0.0234 -2.1853 0.7899 0.9697 1.7727 0.2907 -3.2758 -0.4025 -0.4137 1.1643 -1.0885 -1.3618 -1.7684 -1.0010 2.4939 4.5865 3.4080 -1.3270 -6.5008 -2.5359 1.4260 4.5699 2.0889 -0.7226 3.4550 4.1326 -1.3910 -6.6117 -1.1148 1.1495 -5.3852 -3.2050 1.0833 2.1077 -0.0061 -7.6955 2.9701 -0.8138 6.8938 3.1371 0.5199 -7.0063 2.7259 -2.1879 6.4811 3.4246 1.5937 -0.2205 2.2185 3.6006 -0.8464 -5.5952 -0.4612 0.5591 -4.2888 -2.5015 0.4407 -0.0065 -1.4178 -3.5764 -0.5899 0.6511 3.9616 0.9974 -0.6266 -6.9938 2.2567 0.2200 6.4077 3.1474 0.4621 -5.5557 1.7714 -2.5044 5.5862 -0.0821 -1.3381 -4.9192 0.4479 0.9465 4.9335 2.1387 -0.2367 -3.4484 0.0039 -1.6978 4.1081 -1.1943 1.6901 -1.0641 -2.0544 1.7491 0.1783 0.1472 1.0668 -0.7710 -2.4613 0.3639 0.6151 0.1319 -0.3783 -0.6276 -1.4035 -0.4304 1.2079 2.1989 2.3733 -0.2952 -4.3800 -1.1787 0.2101 1.1057 -0.8417 -2.8285 -0.7781 -0.6128 3.5383 -0.4022 -1.0693 0.4675 0.9975 -0.6931 -5.6504 1.2044 -0.0442 5.4403 2.1314 -0.1222 -4.8950 0.9631 -1.4395 5.0146
-0.5039 2.8374 -0.7562 -2.4502 1.5842 0.7159 1.6201 -2.4754 0.0772 1.8557 1.4980 0.3326 -2.1266 -1.1403 -0.3243 1.9669 -0.8492 -2.0541 -0.0801 -2.1153 2.1471 5.6297 2.5329 -1.4031 -5.0772 -3.7179 1.4029 5.4719 1.3201 -0.6221 4.5908 3.3721 -1.5622 -3.8274 -4.2494 0.8919 -5.3318 -2.3999 1.3231 -0.8104 1.1417 -7.6018 -0.7405 1.5585 7.4528 -1.6636 0.3072 -6.9816 0.4612 1.9544 6.7324 4.2859 1.0331 -0.0568 3.3074 3.0606 -0.9581 -2.9221 -3.4247 0.3362 -4.3542 -1.5074 0.7262 2.4060 0.5895 -4.0339 -1.5812 -1.8086 4.0857 0.4835 1.4353 -7.0120 -1.5366 0.5608 7.0239 -1.2967 -0.3095 -5.7195 0.8522 1.3402 5.5996 2.1145 1.1644 -5.2156 -1.9503 -1.1373 5.3181 0.2901 -0.6439 -3.8956 0.3824 -0.3914 3.9436 -0.4959 1.4209 -0.6530 -1.1534 1.0096 0.6445 0.9306 0.9405 -0.7326 -1.2842 -0.4884 0.7548 1.0885 -0.4860 -0.9554 -0.0432 -1.1932 1.0251 3.1552 1.9263 -0.2506 -3.1875 -1.9969 0.2687 1.4792 -0.3099 -3.3549 -0.4743 -1.4405 3.4144 0.9316 -1.4469 0.0514 0.8334 0.8769 -5.8389 -1.1845 -0.1419 5.8003 -0.1023 -0.0444 -5.1602 0.0414 0.2536 5.0741
-0.4537 2.9519 -0.5769 -2.3361 1.7503 0.9656 1.5024 -2.4657 -0.0185 1.8738 1.4955 0.4814 -2.2174 -0.9149 -0.3750 2.0149 -0.6924 -1.9780 -0.3181 -2.2767 1.9482 4.8644 4.2287 -0.9064 -6.2733 -1.3976 0.9136 3.6282 4.7101 -0.3171 5.0873 2.9070 -1.0192 -5.2323 -2.2848 1.4000 -5.9750 -0.4287 0.0296 -0.0180 -0.3466 -8.1454 0.4199 0.3090 7.8491 0.8578 0.6501 -7.9227 1.6741 0.4000 7.1167 2.7007 3.8346 0.1098 4.0876 1.9612 -0.5559 -3.9662 -2.1356 0.9717 -4.6067 -0.2605 -0.4249 0.3879 -1.8025 -3.5510 -1.6051 -1.8176 4.0085 -0.3953 -1.2424 -7.0670 -0.6860 -0.2370 7.3090 1.4358 0.8346 -6.6036 1.8041 -0.0623 5.8585 -0.2000 -1.9838 -4.7485 -1.6991 -1.3088 5.3633 1.6796 0.1525 -4.2714 0.7261 -1.1487 3.9538 -0.4677 1.5330 -0.5232 -1.0996 1.0818 0.7726 0.9499 1.0286 -0.6286 -1.3446 -0.4058 0.7567 1.0837 -0.3885 -0.9091 -0.1623 -1.2209 0.9620 2.9302 2.4063 -0.0335 -3.6362 -1.0658 0.0442 1.3240 -0.7109 -3.2987 -0.4515 -1.7222 3.3224 0.8486 -1.4143 0.0139 0.1367 -1.0860 -5.8407 -0.6236 -0.7549 5.9515 1.0977 0.0090 -5.5959 0.6526 -0.6683 5.2091
-1.3615 2.3496 -1.3136 -3.3127 1.4669 0.3743 0.4818 -2.8746 0.3451 0.9205 1.1639 0.2092 -3.1084 -1.3916 -0.1351 1.1489 -1.5063 -1.8486 -1.0912 -2.0366 2.4054 3.9053 3.6209 -1.6258 -6.5330 -3.0102 1.8639 4.1914 2.2451 -1.2634 2.7089 4.1616 -1.3355 -6.5584 -1.6680 1.3117 -5.4253 -3.7655 1.7551 2.3212 1.6644 -7.4020 2.2304 1.2649 6.8894 3.4100 1.7428 -6.6161 1.0346 2.0061 6.5149 3.2524 1.5005 -0.6536 1.6908 3.3538 -0.6899 -5.4719 -1.1775 0.6887 -4.2526 -3.2351 1.0807 0.0056 -0.9201 -4.0263 0.9851 -2.2042 3.7560 1.1383 0.9573 -6.9439 2.5282 0.0685 6.3464 3.4170 1.1082 -5.3110 0.1600 1.5403 5.6030 -0.0374 -0.3501 -5.2461 1.8877 -1.6794 4.7624 2.3012 -0.1926 -3.5751 -0.4125 -0.2418 4.0367 -1.3590 0.9854 -0.9196 -2.0349 0.8483 0.4263 0.0706 0.5009 -0.8624 -2.2154 -0.6009 0.8044 0.2121 -0.9472 -0.8842 -0.9992 -1.3109 1.1496 1.9393 2.0653 -0.3913 -4.2666 -1.9838 0.5860 1.1759 -0.8084 -3.1626 -0.1056 -1.5068 3.3890 -0.0810 -1.7823 0.2030 1.1287 0.3699 -5.7336 1.6318 -0.4962 5.3496 2.3287 0.4465 -4.8776 0.4203 0.2590 4.9669
-0.6816 3.4496 -1.0193 -2.7843 2.1896 0.2011 1.3668 -1.8328 0.1414 1.4547 2.1553 0.5256 -2.2344 -0.5178 -0.8249 2.0540 -0.1323 -1.8646 -0.6335 -1.4795 1.9498 5.2913 3.9033 -0.2105 -5.8200 -2.7155 -0.0287 4.0733 4.6132 -0.5592 5.2233 2.6757 0.3348 -4.5155 -3.3152 0.1848 -5.9150 -1.4474 -0.4666 -0.7677 -1.4781 -7.5779 0.8180 -0.5727 8.1856 -1.0955 -2.4484 -6.7057 -0.2258 -1.5771 8.0469 2.8749 4.0444 -0.3366 3.9299 2.0623 0.5784 -3.4000 -2.6034 -0.0552 -4.7108 -0.6786 -0.7277 1.8177 0.7820 -4.1727 0.8334 -0.0101 3.3851 0.0804 -0.3754 -7.1608 1.3315 0.0750 7.1229 -0.5978 -2.4059 -5.3432 -0.7415 -1.9115 6.8487 1.3855 0.7746 -5.4476 1.3229 0.3627 4.6981 0.7072 -1.3272 -3.5871 -0.7041 -1.5619 4.4313 -0.6526 2.0360 -0.8819 -1.4850 1.6275 0.3154 0.7843 1.6056 -0.7196 -1.6174 0.1254 0.4056 1.0144 0.1854 -0.9065 -0.4192 -0.5629 0.8479 2.8016 2.7125 0.2410 -3.5016 -1.2259 -0.5086 1.4646 -0.2710 -3.2266 -0.1507 -0.9203 3.2474 0.6934 -0.8003 0.0327 0.5439 -0.3215 -5.8985 0.8314 -0.2405 5.7949 0.1901 -1.3917 -4.9435 -0.2345 -1.2552 5.6542
-0.8118 2.3710 -1.0970 -2.6874 1.4003 0.6446 1.0932 -2.9488 0.1390 1.5516 1.0422 0.0329 -2.5895 -1.4305 -0.1076 1.4230 -1.5577 -2.1395 -0.4247 -2.2915 2.2708 4.8780 2.7150 -2.0863 -5.7284 -3.2845 2.1390 3.5722 3.3460 -2.1427 5.0628 1.6143 -1.3358 -5.8117 -1.8865 1.7574 -4.6690 -4.0242 1.7653 0.8418 2.3426 -7.3316 0.2484 1.7303 7.3118 -0.3941 1.9715 -6.9518 1.4833 1.7007 6.5427 2.5417 2.8219 -1.4557 3.9473 1.0399 -0.6042 -4.8233 -1.3253 1.0388 -3.6014 -3.4192 0.9886 2.7859 -0.3515 -3.8216 -1.6875 -1.4456 4.2239 2.0044 1.8332 -6.6281 -0.8234 0.9892 6.9727 -0.5752 1.0530 -5.8407 1.6254 0.9348 5.4443 2.9971 0.4695 -4.8666 -1.7904 -0.6170 5.4095 0.3455 -0.3285 -4.0464 0.5904 -0.6676 3.9182 -0.8488 0.9773 -0.8273 -1.4293 0.7481 0.5489 0.5526 0.4305 -0.9296 -1.6237 -0.7216 0.8222 0.6423 -1.0163 -1.0336 -0.4058 -1.4719 1.0708 2.7293 1.6059 -0.6797 -3.6642 -2.1162 0.6585 1.4465 -0.7119 -3.3671 -0.5561 -1.4550 3.4950 0.4783 -1.8766 0.0624 1.8508 0.9879 -5.5927 -0.7468 0.1387 5.7962 0.4938 0.5725 -5.1796 0.5070 0.1116 5.0121
-1.3157 2.4180 -1.2841 -3.3088 1.5477 0.3609 0.3987 -2.8606 0.3285 0.9355 1.1808 0.2287 -3.1585 -1.2984 -0.1639 1.1201 -1.4806 -1.8447 -1.1703 -2.0094 2.3860 4.0176 3.6102 -1.4842 -6.3513 -3.2513 1.9197 2.7180 4.1719 -1.1695 4.2822 2.3205 -1.2113 -6.4253 -1.8372 1.6022 -5.2738 -3.9698 1.5569 2.2247 1.6993 -7.4110 2.3058 1.2547 6.7831 3.3245 1.7690 -6.6399 1.1149 2.0146 6.4273 1.7651 3.3958 -0.6253 3.2549 1.4832 -0.6185 -5.4134 -1.2436 0.9459 -4.1798 -3.3267 0.8499 -0.0454 -0.9054 -4.0181 0.9057 -2.2340 3.7325 1.0458 0.9935 -6.9397 2.5595 0.0415 6.2554 3.3485 1.1265 -5.3398 0.2079 1.5529 5.5470 -0.1011 -0.3382 -5.2390 1.8390 -1.7181 4.7176 2.2494 -0.1645 -3.5862 -0.4397 -0.2350 4.0134 -1.3429 1.0483 -0.9061 -2.0411 0.9101 0.4282 0.0778 0.5381 -0.8468 -2.2514 -0.5381 0.7891 0.1902 -0.9127 -0.8795 -1.0536 -1.2750 1.1369 2.0350 1.9909 -0.3617 -4.2391 -2.0118 0.5690 1.1335 -0.7906 -3.1642 -0.1742 -1.5145 3.3761 -0.1341 -1.7533 0.1940 1.0541 0.3944 -5.7348 1.6237 -0.5197 5.2907 2.2639 0.4687 -4.8925 0.4237 0.2580 4.9216
-0.6106 2.5501 -0.9020 -2.5702 1.3947 0.6010 1.4726 -2.7304 0.2069 1.7307 1.2839 0.3350 -2.2819 -1.3868 -0.3251 1.9757 -1.1514 -1.9142 -0.3229 -2.3167 2.1827 5.0399 3.2816 -1.5135 -5.8684 -3.0074 1.3696 3.7448 3.9284 -1.4091 5.2233 2.0534 -0.9961 -4.6029 -3.7050 1.5036 -5.9295 -1.8461 0.6931 -0.1863 1.2443 -7.5692 0.0641 1.5329 7.3792 -1.0803 0.3397 -7.1305 1.3207 1.5779 6.6457 2.7225 3.2937 -0.8088 4.1197 1.3683 -0.3457 -3.4893 -3.1882 0.9545 -4.7257 -1.2857 0.1049 2.6391 0.3952 -3.7418 -1.6659 -1.6030 4.1320 1.0264 1.5008 -6.8131 -0.9720 0.7695 6.9838 -0.8379 -0.3896 -5.8994 1.5223 0.8493 5.5322 2.4624 1.0780 -4.8877 -1.8360 -0.8175 5.3404 0.5383 -0.8576 -3.9380 0.5984 -0.7513 3.9389 -0.5942 1.1422 -0.7242 -1.2837 0.7940 0.5737 0.8370 0.6713 -0.7265 -1.4393 -0.6975 0.7290 1.0202 -0.7591 -0.8907 -0.2206 -1.4178 1.0460 2.9103 1.9536 -0.2779 -3.5472 -1.9167 0.2513 1.6525 -0.5561 -3.2413 -0.5081 -1.5558 3.4483 0.7945 -1.6960 0.1245 1.2602 0.8367 -5.6670 -0.8313 -0.0403 5.7855 0.2798 -0.1598 -5.1868 0.4488 -0.0036 5.0472
-0.2057 3.5740 0.0952 -2.1708 2.1179 1.3080 1.5117 -1.8948 -0.6495 2.0565 1.7906 0.6970 -2.1522 -0.2062 -0.5091 1.9606 0.2799 -2.2515 -0.1723 -2.0309 1.4628 5.2443 4.5245 -0.1521 -5.6164 -2.4149 0.6975 5.2796 3.1621 -0.6537 4.2093 4.9377 0.6002 -4.4575 -3.0877 0.1389 -5.6173 -1.0769 0.8329 -0.7801 -2.0083 -7.6934 0.0152 -0.1209 7.6561 0.1838 -2.8613 -7.3012 1.3110 0.1109 7.0350 4.2720 2.3153 -0.3755 3.1197 4.0249 0.8975 -3.3823 -2.3750 -0.2422 -4.4581 -0.3061 0.4203 0.1628 0.8721 -3.9222 -1.6024 -1.9381 3.4793 -1.0516 -0.8083 -6.9215 -1.0131 -0.6699 6.9829 0.9487 -2.5968 -6.0958 1.5574 -0.2122 5.7508 -0.5786 0.6569 -5.0249 -1.8175 -1.5906 4.8708 1.4435 -1.2030 -4.1535 0.6813 -1.1395 3.6671 -0.3030 2.1866 -0.1900 -0.9442 1.4808 0.9823 1.0822 1.6516 -0.4591 -1.2200 0.0347 0.6610 1.1230 0.3367 -1.0680 -0.0534 -0.8276 0.6572 3.1342 2.7730 0.4057 -3.3764 -0.9312 -0.0785 1.1628 -0.0833 -3.4571 -0.4129 -1.7048 2.8952 0.9004 -0.8571 -0.3669 -0.3450 -0.5466 -5.8066 -0.8231 -1.0405 5.5894 0.7008 -1.4928 -5.3677 0.4932 -0.8048 4.9568
-0.6792 3.9202 -0.6824 -2.7863 2.6229 0.4739 1.2468 -1.4940 -0.0377 1.4877 2.4227 0.6074 -2.3818 0.0147 -0.8352 1.9140 0.3406 -1.9439 -0.7838 -1.3042 1.7543 5.0773 4.5577 -0.3298 -6.0080 -2.1176 -0.0416 5.0946 3.1208 -0.1246 3.9229 5.2399 -0.2245 -6.0076 -0.6718 -0.1717 -4.8590 -2.8055 -0.1657 -0.4099 -2.7925 -7.1528 1.2757 -1.6478 7.8741 0.0265 -3.7031 -6.2642 0.4093 -2.7742 7.5597 3.9553 2.4682 0.1670 2.6925 4.5367 0.0922 -4.8575 -0.0179 -0.4138 -3.6175 -2.1009 -0.4313 0.8351 0.8027 -4.1639 0.6181 0.0336 3.3878 -0.3213 -1.3749 -6.8508 1.5496 -0.6830 6.9756 0.5907 -3.2756 -4.9967 -0.1671 -2.9177 6.3515 0.3032 0.4478 -5.3491 1.2040 0.1619 4.7088 1.2430 -1.5072 -3.4474 -0.4578 -2.0146 4.1019 -0.6995 2.4999 -0.6904 -1.5079 2.0036 0.4874 0.7214 1.9974 -0.6319 -1.6985 0.5083 0.4277 0.8933 0.5925 -0.9448 -0.5259 -0.2708 0.7735 2.7040 3.2019 0.2593 -3.6127 -0.7593 -0.5290 1.2922 -0.1844 -3.1919 -0.1806 -1.0091 3.0867 0.5800 -0.4512 -0.0660 0.1981 -0.9645 -5.6795 0.9632 -0.7708 5.6477 0.6775 -1.9653 -4.7043 0.0854 -1.9159 5.3285
0.1557 4.0335 -0.1277 -1.4780 2.6262 1.5394 2.0515 -1.3899 -0.6768 2.5678 2.4034 0.1546 -1.6845 0.1997 -0.1469 2.0007 0.5950 -2.5602 0.6025 -1.5199 1.5596 5.5466 4.8944 -1.6468 -4.9102 -1.8955 1.7277 5.5980 3.4501 -1.7861 4.5460 5.4693 -0.9560 -3.9624 -2.5885 0.8743 -4.8033 -0.5681 1.9144 -1.4250 -2.9853 -6.7807 -2.1796 -1.9662 7.3703 -0.3627 -3.7001 -6.3689 -2.8955 -2.7856 6.4038 4.6471 2.6836 -1.2231 3.5219 4.6424 -0.3432 -2.9678 -1.9076 0.2775 -3.7318 0.1683 1.2701 -0.0805 0.7260 -3.9815 0.8510 -0.5739 3.8648 -1.6448 -1.6426 -6.2727 -1.1170 -1.2143 7.0253 0.5683 -3.1373 -5.4077 -2.5387 -2.8361 5.1066 -0.9745 0.2377 -4.8626 0.4039 -0.5122 5.2452 1.2916 -1.3057 -3.9678 -0.9892 -2.0782 3.3810 0.0682 2.6249 -0.2852 -0.3119 1.9928 1.0339 1.3999 2.1088 -0.7687 -0.5985 0.5214 0.8624 1.3990 0.7415 -1.2473 0.5790 -0.3215 0.7364 3.5597 3.3054 -0.4861 -2.8357 -0.4785 0.5029 1.0531 -0.0613 -3.5070 0.1653 -1.2997 2.9628 1.3941 -0.3764 -0.4041 -0.7886 -1.1074 -5.3832 -0.6661 -1.2250 5.6429 0.3741 -1.8959 -4.9267 -1.3988 -2.0515 4.6610
-1.0327 3.5984 -0.1200 -2.9866 1.9577 0.8676 1.3712 -1.6553 -0.3295 1.2715 2.1154 0.9315 -2.4032 -0.4118 -0.7594 1.8007 0.5041 -1.9533 -0.5549 -1.8691 1.5968 4.9363 4.2224 0.2678 -5.7536 -2.9868 -0.0625 3.6669 4.9265 0.2826 4.9739 2.8939 0.4753 -5.9083 -1.5435 -0.0511 -4.5472 -3.5325 -0.2983 -0.3720 -1.9989 -7.5550 1.3048 -0.0591 7.5353 0.3425 -2.9400 -6.9122 0.0508 0.5940 7.1916 2.5239 4.2499 0.4942 3.7406 2.1621 0.7032 -4.8448 -0.7498 -0.2710 -3.3987 -2.6768 -0.5385 0.4206 1.1380 -3.9576 1.2951 -2.2215 3.2092 -0.5521 -0.6865 -6.9603 1.9304 -0.8978 6.6875 0.9398 -2.6493 -5.6207 -0.5603 0.3928 6.0089 -0.1614 0.9042 -5.1487 1.9158 -1.9849 4.4992 1.3713 -1.1153 -3.7709 -0.5144 -0.7370 3.8465 -0.9295 2.1973 -0.3293 -1.6555 1.4702 0.7800 0.5319 1.8262 -0.3630 -1.7021 -0.0165 0.5272 0.8104 0.5054 -0.8935 -0.4475 -0.7157 0.7255 2.5621 2.8107 0.6930 -3.5359 -1.3391 -0.5016 1.1738 0.1108 -3.2461 0.1409 -1.6095 2.8864 0.6229 -0.6807 -0.1753 -0.0046 -0.4038 -5.7637 1.3325 -1.1599 5.3881 0.7798 -1.4377 -5.0580 0.0549 -0.5011 5.0420
-0.8101 3.8233 -0.1120 -2.8392 2.2669 0.8835 1.3510 -1.5342 -0.3228 1.4441 2.2443 0.8734 -2.3596 -0.1097 -0.7704 1.7993 0.5741 -2.0215 -0.5884 -1.6679 1.5891 5.3464 3.8212 0.0929 -5.0227 -3.4351 -0.3570 4.1753 4.6770 0.0334 5.2145 2.5178 0.3964 -3.7261 -3.5879 -0.9920 -5.4105 -2.2330 0.1050 -0.8575 -2.1508 -7.3016 0.7346 -0.1670 7.7474 -0.1449 -3.0855 -6.6477 -0.5472 0.4072 7.3655 2.9548 4.1674 0.2792 3.8984 1.9669 0.6644 -2.9070 -2.5277 -1.1130 -4.5286 -1.0867 -0.0285 0.3597 1.1683 -3.9981 1.2058 -1.9494 3.2770 -0.9230 -0.7919 -6.7938 1.4895 -0.8723 6.8838 0.5639 -2.7428 -5.4279 -1.0548 0.2635 6.1268 -0.3120 0.8918 -5.1321 1.7199 -1.7615 4.6205 1.2014 -1.1185 -3.7226 -0.7611 -0.6685 3.8895 -0.7832 2.4199 -0.3327 -1.5307 1.7223 0.7828 0.6569 1.9731 -0.3968 -1.6488 0.2405 0.5254 0.8578 0.6357 -0.9197 -0.4263 -0.5133 0.7281 2.8105 2.7545 0.5892 -3.3173 -1.2326 -0.5952 1.1014 0.1463 -3.2672 0.0257 -1.4112 2.9189 0.6418 -0.5303 -0.1764 -0.2718 -0.4605 -5.6638 1.0068 -1.0674 5.5259 0.5089 -1.4883 -4.9449 -0.2975 -0.4880 5.1394
-0.7676 3.2875 -0.8337 -3.0632 2.2662 0.2637 0.5837 -2.2164 0.3081 1.1312 1.7246 0.7764 -2.8450 -0.4810 -0.6789 1.5894 -0.5779 -1.6043 -1.3412 -1.5597 2.1402 5.3022 2.5266 0.2505 -6.0625 -3.0949 0.3864 4.3015 3.4568 -0.2408 4.9242 1.4010 0.8817 -4.7845 -3.6225 -0.0584 -6.2546 -1.7656 0.4606 0.4304 -0.0928 -7.9826 2.4011 0.6478 6.9435 1.0287 1.0388 -7.5692 3.1807 -0.2107 6.0632 2.9941 3.1920 -0.0689 3.5133 1.1137 1.0673 -3.7890 -2.7812 -0.3898 -5.1806 -0.8569 0.0994 0.4725 -1.8292 -3.4681 -1.4920 -0.1558 4.1885 0.1148 -1.1433 -7.0305 1.0906 0.8817 6.7402 1.3650 1.2188 -6.1681 2.6367 -0.8215 4.9937 0.1257 -2.0265 -4.7537 -0.8712 0.4645 5.3440 1.4265 0.3941 -3.8717 0.6337 -1.1926 3.6501 -0.9146 1.8789 -0.7183 -1.8386 1.5682 0.4393 0.4528 1.2759 -0.5080 -2.1374 0.0925 0.5352 0.5197 -0.1580 -0.7226 -1.0336 -0.7294 0.9916 2.5857 1.9647 0.5934 -3.9896 -1.3454 -0.2909 1.1215 -0.6029 -3.0172 -0.7677 -0.9344 3.3643 0.0468 -1.1075 0.1905 0.4210 -0.9897 -5.7292 0.4341 0.2603 5.6003 1.0781 0.2537 -5.2755 1.2268 -0.6126 4.7081
-1.0704 2.8566 -1.6106 -3.2729 2.3127 -0.0975 0.1071 -2.2807 0.7699 0.9112 1.7134 0.3086 -3.2480 -0.5859 -0.3380 1.2395 -1.1319 -1.3621 -1.6554 -1.1224 2.5125 4.2717 3.8196 -1.3055 -6.8778 -2.0430 1.4046 2.9961 4.4857 -1.1126 4.4156 2.5284 -0.9580 -6.8111 -0.7129 0.8261 -5.8001 -2.8467 1.3699 2.2197 -0.0676 -7.6919 3.1592 -0.9234 6.8299 3.2220 0.4979 -6.9954 2.9397 -2.2906 6.3831 1.9553 3.8102 -0.5940 3.2922 1.7976 -0.4000 -5.6629 -0.2713 0.2824 -4.5625 -2.3736 0.7764 0.0983 -1.4951 -3.5825 -0.4789 0.5273 3.9857 1.1250 -0.7221 -6.9975 2.4079 0.1031 6.3874 3.2201 0.4545 -5.5443 1.9800 -2.6080 5.4933 0.0445 -1.4439 -4.9277 0.5618 0.8220 4.9540 2.2000 -0.2400 -3.4402 0.1726 -1.8089 4.0633 -1.2248 1.5505 -1.0763 -2.0696 1.6078 0.1759 0.1434 0.9877 -0.7801 -2.4244 0.2201 0.6514 0.1809 -0.4567 -0.6334 -1.3314 -0.5420 1.2213 2.1029 2.4070 -0.2457 -4.4867 -1.1243 0.2829 1.1839 -0.8785 -2.8262 -0.6462 -0.7301 3.5345 -0.3367 -1.1659 0.4582 1.1120 -0.7738 -5.6530 1.3479 -0.1624 5.4270 2.2126 -0.1516 -4.8896 1.1362 -1.5488 4.9638
-0.6209 3.7072 -0.6377 -2.9286 2.5865 0.3387 0.7967 -1.8355 0.1846 1.2800 2.0501 0.8563 -2.6258 -0.0605 -0.8600 1.7516 -0.0842 -1.6750 -1.2673 -1.3948 1.9101 5.4922 2.6701 0.4046 -5.8120 -2.8441 -0.2119 4.5414 3.6459 -0.0980 5.0549 1.5624 1.0292 -6.0038 -1.4270 0.0399 -4.6259 -3.2955 -0.6567 -0.2926 -1.0967 -7.7708 2.0833 -0.1110 7.3043 -0.1772 0.2292 -7.5761 2.9499 -0.7473 6.3236 3.2212 3.4425 0.0587 3.6296 1.3393 1.1949 -4.9946 -0.5629 -0.1695 -3.5355 -2.3640 -0.8826 1.0732 -1.9385 -3.2093 -1.5723 -0.3480 4.1439 -0.0045 -2.0221 -6.6897 0.7876 0.1539 7.0501 0.2381 0.7456 -6.2841 2.5057 -1.1135 5.1067 0.6800 -2.4582 -4.3872 -1.0504 0.0331 5.4438 0.9426 0.3874 -3.9746 0.6177 -1.2141 3.5631 -0.7601 2.2935 -0.6344 -1.7009 1.8850 0.4794 0.6074 1.6798 -0.4556 -1.9920 0.4048 0.4392 0.6822 0.2630 -0.7591 -0.9007 -0.4430 0.8795 2.7478 2.2334 0.7126 -3.7070 -1.0537 -0.6322 1.1927 -0.5004 -2.9919 -0.7693 -0.9283 3.2332 0.2258 -0.7397 0.1047 0.3803 -1.5571 -5.4873 0.2364 -0.2096 5.7544 0.5072 -0.1002 -5.2733 1.1158 -0.8627 4.7616
-0.2769 3.6130 -1.0330 -2.6063 2.8788 0.1763 0.6123 -1.9203 0.4144 1.5279 1.9510 0.6480 -2.6356 0.0985 -0.7720 1.7608 -0.4787 -1.5708 -1.4168 -1.1322 2.0531 4.7977 4.5813 -0.2031 -6.5054 -1.4890 0.1385 4.8633 3.1770 -0.5630 3.7049 5.0701 0.4096 -6.3081 -0.0603 -0.0250 -5.4678 -2.3339 0.0025 0.3516 -1.9507 -7.7434 2.1648 -1.5473 7.4239 1.0023 -0.7730 -7.7196 2.2980 -2.7639 6.6372 3.8287 2.3627 -0.2907 2.5855 4.1913 0.7028 -5.0856 0.4223 -0.3084 -4.1463 -1.8135 -0.3051 0.5111 -2.1903 -2.9177 -0.8073 0.2399 4.0499 0.0359 -2.6329 -6.5018 1.4024 -0.5132 7.0199 1.3895 -0.1751 -6.4547 1.6705 -2.9254 5.4573 0.1057 -2.7627 -4.0658 -0.0936 0.3805 5.3060 1.5006 -0.2355 -4.0173 0.1804 -1.9597 3.7824 -0.5327 2.2314 -0.8303 -1.4625 2.0538 0.3477 0.7776 1.5188 -0.6000 -1.9198 0.6213 0.4606 0.7181 0.0748 -0.7293 -0.9261 -0.3014 0.9704 2.6351 2.8948 0.3449 -3.9582 -0.4871 -0.4339 1.2050 -0.9060 -2.8852 -0.6565 -0.8714 3.3049 0.1610 -0.7830 0.2295 0.3924 -2.0926 -5.3227 0.6904 -0.6163 5.7561 1.1002 -0.7958 -5.2976 0.8315 -1.8503 4.9542
-0.9561 3.0410 -1.5086 -3.2424 2.2472 -0.2448 0.4105 -2.1144 0.7352 0.9588 1.9267 0.4719 -2.9778 -0.6314 -0.5878 1.5920 -0.7957 -1.2883 -1.5741 -1.1465 2.3729 4.4618 3.9999 -0.8582 -6.6554 -2.3468 0.7829 3.1569 4.6336 -0.9088 4.5882 2.7565 -0.3612 -6.6284 -1.0294 0.1738 -5.5167 -3.0494 0.9180 1.2022 -0.6818 -7.7852 2.7813 -0.9455 7.1539 0.5073 -1.7433 -7.3387 2.5885 -2.3168 6.7060 2.0709 3.9747 -0.4674 3.4155 2.0426 0.1117 -5.4636 -0.5062 -0.2489 -4.2596 -2.4883 0.4554 2.3162 0.5619 -3.2504 -0.5143 0.5148 3.9250 1.8555 0.2115 -6.8458 2.1013 0.0855 6.6174 0.4015 -2.0024 -5.9140 1.7247 -2.6322 5.7226 2.4244 0.8490 -4.5605 0.4295 0.8116 4.9880 0.9187 -1.4230 -3.5992 0.0895 -1.8284 4.0986 -1.0651 1.6951 -1.0707 -2.0150 1.6220 0.1020 0.3058 1.1989 -0.6876 -2.2938 0.1916 0.4892 0.4328 -0.2444 -0.6075 -1.1961 -0.5091 1.1246 2.2017 2.6182 0.0385 -4.2296 -1.2564 -0.0848 1.5334 -0.5676 -2.7584 -0.6539 -0.7461 3.4744 -0.0989 -1.0297 0.4246 1.7684 -0.0189 -5.5230 1.1452 -0.1779 5.5536 0.9989 -1.1815 -5.0314 0.9594 -1.5694 5.0909
-0.6940 3.1628 -1.1011 -2.9015 2.2760 0.2249 0.7399 -2.1977 0.5583 1.2873 1.8023 0.6352 -2.6824 -0.5644 -0.6187 1.7653 -0.7158 -1.4530 -1.2971 -1.5102 2.2336 4.5116 4.4432 -0.3493 -6.9131 -0.9993 -0.1035 3.2007 4.9604 0.0001 4.7245 3.1153 -0.3825 -5.9850 -1.7870 0.6876 -6.4477 -0.1256 -1.0137 0.7562 -1.2948 -7.8483 2.5859 -0.8124 7.3692 1.4433 -0.1606 -7.6219 2.9576 -2.0025 6.6168 2.1984 4.1124 0.2917 3.6443 2.1995 -0.0611 -4.6594 -1.6361 0.5197 -5.0167 0.0405 -1.1931 0.5596 -2.1865 -3.0983 -0.9588 0.0169 4.1805 0.3264 -2.1247 -6.7369 1.5575 -0.0254 6.9982 1.7662 0.2404 -6.2638 2.3036 -2.3798 5.5013 0.2184 -2.5797 -4.3399 -0.2343 0.3796 5.3843 1.7050 -0.1560 -3.8565 0.5127 -1.8902 3.9160 -0.8000 1.7741 -0.8233 -1.6859 1.5623 0.3842 0.5812 1.2183 -0.5746 -2.0039 0.1000 0.5679 0.6776 -0.2282 -0.6304 -0.9146 -0.6944 1.0964 2.4243 2.6771 0.2461 -4.1557 -0.6697 -0.4420 1.3030 -0.9554 -2.8481 -0.5834 -1.0541 3.4573 0.1964 -1.1044 0.3512 0.6199 -1.7646 -5.4738 0.8016 -0.3710 5.8039 1.3752 -0.5193 -5.2247 1.1901 -1.5712 5.0338
-0.8326 3.8132 -0.6028 -3.0862 2.5038 0.2628 0.9379 -1.6414 0.1275 1.1357 2.2556 0.9008 -2.5317 -0.0918 -0.9775 1.7865 0.2027 -1.6940 -1.1763 -1.3616 1.8360 5.3639 2.8928 0.7505 -5.3494 -3.2955 -0.6604 4.8078 1.6891 1.3421 4.5494 3.8349 0.2426 -3.9636 -3.5496 -1.0109 -5.7672 -2.0389 -0.4242 -0.6612 -1.8174 -7.3791 2.1020 -0.1198 7.2833 -0.8083 -2.8057 -6.4786 2.9669 -0.7989 6.3299 3.4751 1.5123 1.3776 3.1102 3.6456 0.2834 -3.0943 -2.5271 -1.0975 -4.8295 -0.9343 -0.5205 1.3891 1.0056 -4.0281 -1.4936 -0.2757 4.0508 -0.0506 -0.5586 -6.9901 0.8225 0.1873 6.9969 -0.3504 -2.6252 -5.1127 2.5365 -1.1661 5.1082 0.9832 0.8759 -5.3056 -0.9841 0.1078 5.3545 0.6974 -1.2576 -3.3846 0.6772 -1.2242 3.5262 -0.8719 2.3935 -0.6412 -1.8155 1.8907 0.4311 0.5302 1.8720 -0.4392 -1.9954 0.3935 0.3590 0.7056 0.4690 -0.7655 -0.8553 -0.3737 0.8249 2.5948 2.5208 0.8112 -3.5407 -1.1710 -0.8242 1.2329 -0.0657 -3.0512 -0.6933 -0.8977 3.1658 0.3021 -0.5814 0.0661 0.3743 -0.3756 -5.7268 0.2870 -0.1746 5.6942 0.2192 -1.4646 -4.7405 1.1637 -0.8723 4.7295
-1.6910 2.4192 -1.4757 -3.6306 1.6900 0.3146 0.0882 -2.7177 0.5086 0.5854 1.2456 0.0235 -3.4620 -1.2157 -0.0481 0.4739 -1.6373 -1.9289 -1.3976 -1.6674 2.5418 4.0799 2.9825 -1.7343 -6.9235 -2.7648 1.9350 4.1745 1.8276 -0.8598 2.8801 3.5246 -2.0077 -5.6659 -3.4893 1.9559 -7.0081 -1.5791 1.3059 3.4070 1.4617 -6.8300 3.2617 0.7625 6.3333 4.3359 1.1108 -5.9229 3.8196 -0.2545 5.4544 3.0617 1.2956 -0.3232 1.6797 2.9582 -1.4198 -4.5842 -2.9784 1.3414 -5.8424 -1.0294 0.6369 -0.0773 -0.4866 -4.0974 -1.0759 0.0510 4.3111 2.0072 1.1492 -6.6031 1.9610 1.1088 6.2920 3.9460 0.4166 -4.7091 3.0664 -0.9134 4.5537 0.2403 0.1678 -5.2307 -0.2241 0.7438 5.2608 2.2331 -0.5761 -3.2843 0.8492 -1.2305 3.5796 -1.7301 1.0784 -1.0095 -2.3676 1.0423 0.3625 -0.3191 0.5403 -0.9729 -2.5673 -0.3737 0.8453 -0.2392 -0.9122 -0.8864 -1.3484 -1.0647 1.2239 1.7633 1.8727 -0.6292 -4.6723 -1.6926 0.6692 0.9230 -0.8263 -3.0906 -0.5598 -0.8817 3.4897 -0.4692 -1.6336 0.2932 1.6317 0.5071 -5.4818 1.0846 0.4412 5.3427 2.6519 0.1248 -4.4848 1.6506 -0.5971 4.4551
-0.8333 2.6393 -1.1384 -3.0030 1.6630 0.1818 0.9272 -2.5411 0.7601 1.2400 1.4925 0.6389 -2.5439 -1.2082 -0.5548 1.8829 -1.1023 -1.3010 -1.1491 -1.8895 2.3974 4.1954 4.2256 -0.8243 -6.8146 -1.5006 -0.4757 4.4735 2.8033 -0.7416 3.0088 4.7055 -0.4115 -6.0094 -2.1806 0.5228 -6.2212 -0.7755 -1.4403 0.5115 -0.3495 -7.6223 2.3343 0.3991 7.3575 -0.3688 -1.2245 -7.1044 3.1542 -0.4876 6.5454 3.5436 1.9630 -0.2543 2.0002 3.7969 0.1038 -4.6681 -2.0838 0.4876 -4.7739 -0.6693 -1.4783 2.6679 0.1135 -3.3218 -1.3832 -0.3830 4.3626 1.5448 0.2311 -6.7842 1.0443 0.6506 7.0639 -0.2938 -1.5953 -5.7026 2.6719 -1.1054 5.4507 2.6412 0.4726 -4.6184 -0.8259 0.2486 5.5447 0.7547 -1.4113 -3.5057 0.7571 -1.4586 3.9774 -0.8558 1.2590 -0.8095 -1.7486 1.0332 0.3879 0.5523 0.8001 -0.5224 -1.9689 -0.4414 0.6240 0.7478 -0.6391 -0.5229 -0.8307 -1.1259 1.2067 2.2471 2.4755 0.1568 -4.0277 -1.2781 -0.5389 1.7022 -0.8190 -2.7514 -0.6207 -1.1871 3.5995 0.3134 -1.4996 0.4924 1.6238 -0.1006 -5.4829 0.4541 0.0228 5.8927 0.6575 -1.0633 -4.9137 1.2886 -0.8753 5.0664
-0.6962 3.7279 -0.2347 -2.6344 2.2183 0.9385 1.4502 -1.6361 -0.4632 1.6094 2.1438 0.7272 -2.2976 -0.1765 -0.7666 1.9177 0.4800 -2.1350 -0.4758 -1.8101 1.4353 4.4436 5.3208 0.2803 -6.0749 -1.9892 0.1181 3.1635 5.5460 0.9262 4.7543 4.1019 -0.1956 -4.8658 -2.7888 0.0390 -6.0210 -0.6620 -0.0920 -0.4248 -2.8783 -7.1947 1.0840 -0.9991 7.6635 0.4341 -3.6613 -6.5174 -0.2548 -0.4838 7.4198 2.2836 4.5359 1.0443 3.8063 3.0095 -0.0631 -3.6878 -2.2021 -0.2388 -4.7500 -0.0287 -0.3951 0.3771 0.7640 -4.1106 1.4386 -2.1394 2.9786 -0.6730 -1.5154 -6.7587 1.8424 -1.5167 6.6786 1.1173 -3.1500 -5.3429 -0.8150 -0.4969 6.1955 -0.2706 0.3325 -5.2098 2.0145 -2.0792 4.3087 1.5518 -1.3563 -3.7473 -0.5731 -1.0916 3.8391 -0.6605 2.3200 -0.4147 -1.3508 1.6424 0.7473 0.7791 1.8800 -0.5167 -1.5154 0.1648 0.4890 0.9703 0.5405 -1.0361 -0.3045 -0.6206 0.6231 2.6089 3.2227 0.5124 -3.6243 -0.7641 -0.4425 1.2732 -0.0990 -3.3490 0.2072 -1.6485 2.7464 0.7504 -0.6287 -0.2977 -0.0468 -1.0286 -5.6718 1.3038 -1.5657 5.3287 0.8935 -1.8902 -4.9266 -0.0575 -1.0438 5.0810
-0.4767 3.6987 -0.2850 -2.4804 2.1280 0.6962 1.5416 -1.6982 -0.9530 2.0802 2.8178 -0.7073 -2.1818 -0.3137 -0.8400 1.9405 0.5975 -2.4905 -0.1393 -1.8833 1.1770 4.1380 3.1277 3.0386 -5.4832 -2.5536 0.7202 3.1249 4.0965 2.6609 4.4659 2.1365 2.1939 -5.4914 -1.1044 0.7463 -4.4458 -3.2155 0.1790 -1.0166 -2.0730 -7.6509 1.0529 -0.1744 7.3183 0.0647 -2.8106 -7.3440 2.2674 -0.0424 6.5269 2.5078 4.0034 1.4685 3.8062 2.0329 0.9042 -4.4601 -0.4170 0.2244 -3.3252 -2.4747 -0.3769 -0.0090 0.9965 -4.0470 -1.2901 -1.6758 3.3638 -1.3318 -0.8820 -6.8814 -0.1082 -0.5950 6.7795 0.9175 -2.4315 -6.2310 2.3032 -0.3427 5.2148 -0.8220 0.6782 -5.0717 -1.2820 -1.3547 4.7775 1.4505 -0.9456 -4.3634 1.0670 -1.1145 3.2537 -0.4444 2.3038 -0.5517 -1.1787 1.5799 0.5535 0.9741 1.7980 -0.5464 -1.2803 0.0932 0.3072 1.1599 0.5551 -1.2642 -0.0483 -0.6761 0.3759 2.8525 2.9180 0.5627 -3.3233 -1.1290 -0.3398 1.1235 0.1588 -3.6619 -0.1728 -1.5468 2.6267 0.9252 -0.6752 -0.6385 -0.5461 -0.5166 -5.8514 -0.1477 -0.9328 5.3646 0.6319 -1.3380 -5.5000 1.0892 -0.8035 4.5616
-0.2927 4.1107 -0.7194 -2.6285 3.1218 0.2985 0.8412 -1.4980 0.1384 1.5648 2.3501 0.7398 -2.4444 0.4840 -0.9952 1.8470 0.1844 -1.7790 -1.2868 -0.9810 1.7806 5.1204 4.6397 0.0755 -5.7617 -2.1749 -0.5112 5.1235 3.1972 -0.0889 3.9939 5.2729 0.4476 -5.9052 -0.7546 -0.2439 -4.5845 -2.6664 -0.9376 -0.6702 -3.1910 -6.7453 1.8565 -1.8923 7.3582 -0.0864 -4.0512 -5.8918 1.9379 -3.0893 6.5345 3.9966 2.4921 0.1169 2.7776 4.5133 0.6735 -4.8562 0.0707 -0.4111 -3.4495 -1.7777 -1.1126 0.6098 0.5393 -3.9414 -0.6749 0.2785 3.8545 -0.6569 -1.7658 -6.4664 1.2408 -0.7733 6.9328 0.5693 -3.5616 -4.6921 1.3982 -3.1486 5.3024 -0.0145 0.1240 -5.0595 -0.0306 0.3165 5.1540 1.2347 -1.7232 -3.2296 0.1277 -1.9915 3.5651 -0.4982 2.7059 -0.7098 -1.4465 2.3430 0.4107 0.8342 2.0150 -0.5483 -1.8321 0.8863 0.3368 0.8297 0.5921 -0.8283 -0.8071 -0.0308 0.7954 2.7719 3.1804 0.4916 -3.5738 -0.4668 -0.8365 1.2128 -0.3948 -2.9974 -0.5780 -0.8167 3.0785 0.3248 -0.3782 0.0467 -0.0550 -1.2986 -5.3573 0.6236 -0.7657 5.6150 0.5917 -2.2435 -4.4240 0.7053 -1.9822 4.7796
-0.6849 3.7917 -0.6898 -2.9950 2.5812 0.1679 0.8804 -1.7055 0.1838 1.1936 2.1963 0.9004 -2.5105 -0.0603 -1.0001 1.8250 0.0772 -1.6559 -1.2481 -1.3134 1.8585 5.3329 3.2700 0.7310 -5.5730 -3.0320 -0.6852 4.3087 4.1897 0.2690 4.9878 2.0628 1.2127 -4.2009 -3.3989 -0.9860 -5.8987 -1.7417 -0.4898 -0.7026 -1.9223 -7.3148 2.1866 -0.3685 7.2679 -0.8573 -2.9052 -6.4102 2.9416 -1.1970 6.3399 3.0122 3.8350 0.3197 3.5882 1.6791 1.2701 -3.2522 -2.4490 -1.0668 -4.8767 -0.7138 -0.5829 1.4508 0.8666 -3.9999 -1.4082 -0.1214 4.0392 -0.0586 -0.6762 -6.9391 0.9648 0.1112 6.9690 -0.3768 -2.7306 -5.0512 2.4584 -1.5392 5.1303 1.0294 0.7397 -5.2722 -0.8426 0.2330 5.3282 0.7149 -1.3775 -3.3386 0.6048 -1.3843 3.5494 -0.7704 2.3737 -0.6925 -1.7491 1.9293 0.3745 0.6099 1.8121 -0.4487 -1.9790 0.4375 0.3333 0.7438 0.3980 -0.7444 -0.8731 -0.3583 0.8342 2.6404 2.5225 0.8230 -3.6011 -1.0559 -0.8396 1.2766 -0.1949 -3.0147 -0.7073 -0.8800 3.1765 0.2868 -0.6231 0.0965 0.3874 -0.4988 -5.6816 0.3778 -0.2142 5.6787 0.2219 -1.5810 -4.6897 1.1412 -1.0633 4.7403
-1.1422 3.8979 -0.1597 -3.2527 2.3822 0.7151 0.9539 -1.4855 -0.2094 0.9732 2.2587 1.0594 -2.7036 -0.0341 -0.8554 1.6020 0.6440 -1.8178 -1.0468 -1.5422 1.6512 4.9769 3.7438 0.7915 -6.1684 -2.5077 -0.4081 3.8421 4.6307 0.6088 4.7777 2.4387 1.0492 -6.2661 -1.0635 -0.2995 -4.9769 -3.0871 -0.6398 0.0834 -2.6583 -7.2151 2.7707 -0.6269 6.8049 0.8722 -3.4283 -6.4451 3.5504 -1.1647 5.7001 2.5890 4.1486 0.6908 3.4261 1.9158 1.1376 -5.1659 -0.3018 -0.4367 -3.7884 -2.2660 -0.7899 0.2614 0.8982 -3.9378 -1.1715 -0.7299 4.0009 -0.2942 -1.3268 -6.7746 1.4500 -0.3861 6.6994 1.3560 -2.9326 -5.1691 2.9948 -1.4596 4.5098 -0.2142 0.4732 -5.1236 -0.5331 -0.4353 5.2711 1.4790 -1.1802 -3.4763 0.9691 -1.4904 3.1489 -1.1146 2.4911 -0.3557 -1.9498 1.8182 0.7115 0.3216 2.0322 -0.2955 -2.0646 0.3318 0.4718 0.5495 0.6999 -0.8207 -0.8576 -0.4274 0.7417 2.3753 2.7335 0.9448 -3.8759 -0.9286 -0.6746 1.0977 0.0543 -3.0902 -0.4484 -1.2149 2.9752 0.2550 -0.4687 -0.1070 0.1419 -0.8571 -5.5913 0.7822 -0.6660 5.4375 1.0094 -1.7033 -4.7470 1.5742 -1.2198 4.3188
-0.8001 3.8494 -0.1729 -2.9347 2.4442 0.8015 1.0659 -1.6161 -0.2083 1.3168 2.1345 0.9383 -2.5571 0.0224 -0.8537 1.7454 0.4427 -1.8911 -0.9780 -1.6260 1.5853 4.7883 4.5952 0.4699 -6.3679 -1.8679 -0.3719 4.8660 3.1559 0.2990 3.6158 5.1733 0.7851 -5.1514 -2.6551 -0.4680 -6.3075 -0.5256 -0.4313 -0.0255 -3.0332 -7.1004 2.3389 -0.8762 7.0988 0.8211 -3.7681 -6.3576 3.2424 -1.2760 6.0292 3.7641 2.3992 0.4472 2.4259 4.3578 0.9471 -3.9622 -2.0431 -0.6097 -5.0248 0.1354 -0.5905 0.3071 0.6308 -3.9558 -1.3365 -0.9663 3.9533 -0.3926 -1.6922 -6.6812 1.0207 -0.6936 6.8919 1.3753 -3.2257 -5.1305 2.8110 -1.4909 4.7720 -0.2284 0.1654 -5.1009 -0.8273 -0.7378 5.2937 1.5743 -1.4188 -3.5027 0.9126 -1.5288 3.2377 -0.8431 2.4435 -0.3672 -1.6677 1.8076 0.7294 0.5691 1.9140 -0.3649 -1.8811 0.3372 0.4675 0.7205 0.5634 -0.8706 -0.7210 -0.4963 0.7135 2.4910 3.0274 0.7603 -3.8951 -0.5917 -0.6541 1.1959 -0.1798 -3.1298 -0.5002 -1.3254 2.9620 0.3969 -0.5786 -0.1256 0.1144 -1.1761 -5.5459 0.4822 -0.9062 5.5581 1.0425 -1.9846 -4.7300 1.3982 -1.3189 4.4737
-0.7451 3.8042 -0.2899 -2.8910 2.4524 0.7103 1.0478 -1.6892 -0.2042 1.3288 2.0770 0.9400 -2.5324 -0.0122 -0.8809 1.8042 0.3492 -1.8727 -0.9959 -1.6389 1.5896 4.4930 4.9571 0.8126 -6.4648 -1.6361 -0.3874 3.1717 5.3167 1.2934 4.7360 3.7059 0.3839 -6.2630 -0.2117 -0.5850 -5.4079 -2.4670 -0.3555 -0.1751 -3.0008 -7.0868 2.6168 -1.1586 6.9447 0.5560 -3.8143 -6.3039 3.4223 -1.6805 5.8505 2.1860 4.4015 1.3059 3.6753 2.7137 0.4056 -5.0199 0.2799 -0.7341 -4.0648 -1.9370 -0.5175 0.4832 0.6641 -3.9975 -1.1805 -0.9043 3.9578 -0.3921 -1.6172 -6.7044 1.3190 -0.8383 6.7900 1.1331 -3.3150 -5.0688 2.9127 -1.8809 4.6207 -0.0636 0.2403 -5.1531 -0.5927 -0.7101 5.2706 1.4873 -1.5099 -3.4651 0.9582 -1.7318 3.1660 -0.7874 2.3928 -0.4339 -1.6336 1.7955 0.6673 0.6214 1.8561 -0.3848 -1.8616 0.3215 0.4387 0.7659 0.4977 -0.8688 -0.7130 -0.5220 0.7088 2.4432 3.0533 0.8261 -3.8756 -0.6145 -0.6776 1.2414 -0.2283 -3.1268 -0.4329 -1.3734 2.9414 0.4049 -0.6343 -0.1264 0.1342 -1.1416 -5.5613 0.6997 -1.0189 5.4858 0.9342 -2.0365 -4.7000 1.5165 -1.5555 4.3766
-0.0423 3.5848 -1.0303 -2.5044 2.6487 -0.2634 0.8331 -2.0564 -0.0295 2.3027 2.2085 -0.5364 -2.3086 -0.0859 -1.1863 2.0393 -0.3331 -1.8490 -1.1487 -1.2988 1.7404 3.2582 3.5847 3.4069 -5.8136 -2.4822 -0.6505 2.8557 4.5115 2.3648 3.3633 2.2718 3.1364 -4.5364 -3.0837 -0.9860 -5.9131 -1.1492 -0.5032 -1.1228 -1.8723 -7.3290 2.6296 -0.3612 6.9203 -1.2328 -2.9018 -6.4704 3.2071 -1.3881 6.0650 2.5827 4.0588 1.1285 3.0691 1.7813 1.8017 -3.4473 -2.3108 -1.1386 -4.7389 -0.3106 -0.6783 1.5469 0.5850 -4.1284 -1.0500 0.0851 3.8117 -0.3652 -0.6889 -6.9611 1.4754 0.2603 6.6129 -0.5910 -2.8395 -5.1699 2.6167 -1.7783 4.9185 0.9875 0.5576 -5.3531 -0.3783 0.4776 5.0372 0.7484 -1.6503 -3.5135 0.7315 -1.5069 3.3908 -0.2584 2.1858 -0.9586 -1.3428 1.8981 0.0605 0.9861 1.4709 -0.5034 -1.7096 0.4303 0.1096 1.0360 0.0782 -0.8800 -0.6903 -0.4547 0.6553 2.6801 2.6378 0.8388 -3.5483 -0.8718 -0.9590 1.4018 -0.5180 -3.1843 -0.5109 -0.8530 3.0115 0.4158 -0.8939 -0.0906 0.2302 -0.6161 -5.7567 0.7799 -0.1090 5.3906 0.1123 -1.7488 -4.8155 1.3646 -1.1539 4.5234

>  <OB_ATOM_TYPES> (1hvrB1)
O.3 O.3 O.2 C.3 C.3 C.3 C.3 C.ar C.ar C.ar C.ar C.ar C.ar C.ar C.ar C.ar C.ar C.ar C.ar C.ar C.ar C.ar C.ar C.ar C.ar C.ar C.ar C.ar C.ar C.ar C.ar C.3 C.3 C.3 C.3 N.am N.am C.ar C.ar C.ar C.ar C.2 C.ar C.ar C.ar C.ar

>  <ENSEMBLE_RMSD> (1hvrB1)
1.000 1.277 1.307 1.396 1.398 1.580 1.588 1.608 1.617 1.662 1.699 1.722 1.751 1.768 1.780 1.788 1.822 1.840 1.862 1.876 1.934 1.938 2.008 2.018 2.067 2.081 2.093 2.119 2.157 2.160 2.166 2.174 2.193 2.199 2.212 2.217 2.256 2.315 2.409 2.409 2.417 2.437 2.456 2.457 2.499 2.551 2.620 2.663 2.787 2.942

$$$$
