
 OpenBabel03071213D

 15 15  0  0  0  0  0  0  0  0999 V2000
   34.8360   43.4240   -5.7800 O   0  0  0  0  0
   38.3770   39.8750   -3.7830 O   0  0  0  0  0
   36.7230   42.5360   -6.5600 O   0  0  0  0  0
   38.7640   42.0370   -3.8280 O   0  0  0  0  0
   35.6010   41.2570   -5.0520 C   0  0  0  0  0
   35.9910   42.4740   -2.9230 C   0  0  0  0  0
   38.0480   42.8710    0.7840 C   0  0  0  0  0
   37.2570   41.7330    0.5610 C   0  0  0  0  0
   38.1630   43.8580   -0.1950 C   0  0  0  0  0
   36.5600   41.6190   -0.6470 C   0  0  0  0  0
   37.4690   43.7280   -1.3990 C   0  0  0  0  0
   36.4200   41.3010   -3.7440 C   0  0  0  0  0
   35.7020   42.4860   -5.8790 C   0  0  0  0  0
   37.9680   41.0650   -3.8420 C   0  0  0  0  0
   36.7100   42.5820   -1.6470 C   0  0  0  0  0
  1 13  1  0  0  0
  2 14  1  0  0  0
  3 13  2  0  0  0
  4 14  2  0  0  0
  5 12  1  0  0  0
  5 13  1  0  0  0
  6 12  1  0  0  0
  6 15  1  0  0  0
  7  8  1  0  0  0
  7  9  2  0  0  0
  8 10  2  0  0  0
  9 11  1  0  0  0
 10 15  1  0  0  0
 11 15  2  0  0  0
 12 14  1  0  0  0
M  END
>  <MOLID> (1hytA1)
1hytA1

>  <SMILES_CANONICAL> (1hytA1)
OC(=O)[C@@H](Cc1ccccc1)CC(=O)O	

>  <FINGERPRINT> (1hytA1)
0000000000000101000000000000000000000001000000000000000000000000000000000000000000000001000000100000000000000001000000100000000000000000001010000000000000000000000000000000000000000000000000000000000000000000000000000000000000000000000000000000000000000000000000000000000000001000000000000000000000001000000010000100000000001000000100000000000000000000010000000000000010010000000000000000010000000000100000000000000000000000001000000000000000000000000000000000000000000000000000000000000000001000000000000000100000000000000000000000000000000000000000100000000000000000000000000000000001000000000000000000100000000000000000000000000000000001000000000000000000000001000000000000100000000000000010100000000000000001000000000000000001000000000000000100000000000000000100000000000000000000000010000000000010000000000000000000000000000000000000000000000000000000000000000000000000000000000000000000000000000000000000000000000000000010000000000000001000000000000000100000000000000000000000000000000000000000010000000000010000000000

>  <MACCS166> (1hytA1)
000000000000000000000000000000000000000000000000010000000000000000000000000100000000000001100000001000010000000000000000001000000011000100110000010000000110101000111000

>  <OB_MW> (1hytA1)
208.074

>  <OB_logP> (1hytA1)
1.4046

>  <OB_PSA> (1hytA1)
74.6

>  <OB_MR> (1hytA1)
54.1796

>  <OB_ATOMIC_CHARGES> (1hytA1)
-0.2456385095 -0.2456417765 -0.2456385095 -0.2456417765 0.125606134 0.0381598577 -2.00226e-05 -0.0003223907 -0.0003223907 -0.0042533108 -0.0042533108 0.1189490465 0.3654332004 0.3652054358 -0.0216216768

>  <MCT_HBD> (1hytA1)
2

>  <MCT_HBA> (1hytA1)
4

>  <ENSEMBLE_TOTAL> (1hytA1)
50

>  <ENSEMBLE_COORDS> (1hytA1)
-2.2373 0.9900 -2.7188 1.5855 -2.1039 -0.9816 -0.6675 -0.1217 -3.9446 1.7771 -0.0359 -1.9199 -1.3341 -0.9607 -1.7797 -0.4404 0.6422 -0.0540 0.6686 0.4912 4.0779 -0.4456 -0.2992 3.5854 1.3661 1.2739 3.2360 -0.7883 -0.2420 2.2859 1.0032 1.3283 1.8321 -0.2567 -0.6820 -0.7576 -1.3416 -0.0027 -2.9329 1.1317 -0.8662 -1.2988 -0.0207 0.5887 1.3707
-2.1688 1.3771 -2.1742 0.3259 -3.0270 -1.3295 -0.0810 1.5409 -3.0876 2.2084 -1.7465 -1.2162 -0.8558 -0.5553 -2.1768 -0.7501 -0.8794 0.2858 0.6722 1.6598 3.4199 1.0431 0.2569 3.3633 -0.1471 2.1774 2.4868 0.5841 -0.5223 2.3702 -0.6446 1.3372 1.4123 0.0538 -0.7006 -0.9836 -0.9558 0.8905 -2.5352 0.9905 -1.8532 -1.1834 -0.2750 0.0445 1.3481
-0.7647 0.1350 -4.1502 0.1656 -2.7337 -1.2450 -1.0420 1.8847 -2.7114 1.9361 -1.3065 -1.3717 -1.3303 -0.3881 -1.9446 -0.8748 -0.6543 0.4768 0.9800 1.3749 3.7544 1.3525 0.0140 3.4138 0.0746 2.0325 3.0084 0.7835 -0.5957 2.3583 -0.5508 1.3706 1.8773 -0.2521 -0.4258 -0.8841 -1.0270 0.6852 -2.9401 0.7430 -1.5088 -1.1913 -0.1935 0.1160 1.5494
-1.1600 1.6844 -2.3819 0.9490 -2.8097 -1.1822 -1.1968 -0.1217 -3.7806 1.6262 -1.0624 -2.4866 -1.3255 -0.4306 -1.3915 0.6671 0.4777 -0.1071 -0.1495 0.8185 4.0786 0.8096 -0.1554 3.5901 -0.8044 1.6175 3.2164 1.0539 -0.2526 2.2703 -0.5430 1.5125 1.7939 -0.0043 -0.7291 -0.7219 -1.2048 0.3593 -2.6568 0.9437 -1.5125 -1.5783 0.3387 0.6042 1.3375
-0.7855 0.1072 -4.1851 0.1134 -2.7297 -1.1632 -0.9392 1.8646 -2.7368 1.9014 -1.3180 -1.1906 -1.3431 -0.3990 -1.9767 -0.9814 -0.5860 0.4788 1.1140 1.3560 3.6638 1.5615 0.0715 3.1507 0.0369 1.9587 3.1292 0.8853 -0.5239 2.1534 -0.6921 1.3183 2.0478 -0.3111 -0.4160 -0.8691 -0.9923 0.6660 -2.9696 0.6965 -1.5091 -1.0941 -0.2644 0.1392 1.5616
-0.7094 -0.2421 -3.9651 1.6108 -0.0205 -1.8601 -2.1132 1.0871 -2.7539 1.6441 -2.0813 -0.8935 -1.3511 -1.0214 -1.8507 -0.5414 0.5782 -0.0464 0.8248 0.5783 4.0123 -0.3286 -0.2115 3.6218 1.4649 1.3332 3.1020 -0.7488 -0.2032 2.3440 1.0156 1.3377 1.7213 -0.3534 -0.7473 -0.7493 -1.4406 0.0741 -2.8697 1.0588 -1.0417 -1.1633 -0.0324 0.5802 1.3506
-0.9737 -0.6120 -4.0173 1.5722 0.0062 -1.8467 -1.6829 1.2330 -2.8775 1.5056 -2.1161 -1.0258 -1.4682 -0.8988 -1.7506 -0.4978 0.6648 -0.0164 0.8422 0.5258 4.0484 -0.3215 -0.2333 3.6276 1.5053 1.2894 3.1612 -0.7381 -0.1762 2.3501 1.0632 1.3423 1.7794 -0.3960 -0.6737 -0.7112 -1.3884 0.0483 -2.9095 0.9815 -1.0242 -1.1961 -0.0033 0.6244 1.3843
-1.8309 1.4914 -2.5279 1.9513 -1.9716 -1.3061 -1.2183 -0.3696 -3.6967 -0.2550 -2.5137 -1.4956 0.3078 0.6344 -2.1127 -0.7125 -0.0905 0.0950 0.7780 1.1168 3.9232 0.7278 -0.2854 3.5512 0.3375 2.0572 3.0684 0.2435 -0.6462 2.3494 -0.1814 1.6694 1.7683 0.4160 -0.2584 -0.8980 -0.9820 0.4902 -2.8621 0.6240 -1.6963 -1.2696 -0.2058 0.3721 1.4133
-0.2186 0.4929 -3.9661 1.9614 -1.1250 -1.2469 -1.7711 1.6907 -2.7981 0.4250 -2.7582 -0.8277 -1.2036 -0.5521 -2.1173 -1.0258 -0.4500 0.3522 1.1179 1.2189 3.6636 0.8431 -0.2044 3.5876 0.6883 2.0409 2.6897 0.1667 -0.7041 2.5380 -0.0513 1.5041 1.5609 -0.2494 -0.4285 -0.9497 -1.1121 0.6758 -2.9648 0.7098 -1.5822 -0.9958 -0.2804 0.1810 1.4744
-2.6166 0.7292 -1.8181 1.3026 -2.6488 -1.4996 -0.9007 1.3193 -3.2023 2.5012 -0.7143 -1.5887 -0.8784 -0.8137 -2.0740 -0.3249 -1.1324 0.3347 0.3438 1.6890 3.4842 -0.8312 1.7845 2.6365 1.2428 0.7091 3.2828 -1.0209 0.8949 1.6458 1.0368 -0.2543 2.2159 0.1701 -0.6267 -1.0025 -1.4308 0.5261 -2.4397 1.4486 -1.3062 -1.3939 -0.0425 -0.1558 1.4188
-2.3569 1.0056 -1.3296 1.2010 -2.7316 -1.8536 -0.9228 1.1389 -3.0996 2.4626 -0.8576 -2.1411 -0.9409 -0.8201 -1.6905 0.2661 -1.2478 0.4515 -0.1630 1.8645 3.3591 -1.3261 1.2153 2.7822 1.0735 1.4865 2.9884 -1.1685 0.2369 1.8732 1.2449 0.4325 2.0039 0.3747 -0.7001 -0.9549 -1.3722 0.5404 -2.1341 1.4608 -1.4096 -1.7076 0.1668 -0.1538 1.4526
-1.1601 -0.0777 -3.6074 1.7172 -2.3048 -1.6420 -2.3971 0.9409 -1.9823 1.8851 -0.1744 -2.4377 -1.1235 -1.0471 -1.4695 0.2737 0.6361 -0.1818 0.1011 0.6417 4.0931 -1.1135 0.6563 3.2971 1.3037 0.6078 3.4880 -1.0398 0.6342 1.9562 1.3837 0.5899 2.0393 0.1932 -0.7456 -0.7933 -1.6296 0.0622 -2.3447 1.3472 -1.0024 -1.7176 0.2587 0.5829 1.3026
-2.4270 0.7926 -2.6242 0.0149 -2.3541 -0.7913 -1.3544 -0.7182 -3.9549 1.9726 -1.3887 -1.4529 -0.1022 0.6050 -2.3760 0.7184 0.9442 -0.0772 0.0852 0.4064 4.1213 1.2973 -0.0707 3.4806 -0.8744 1.0007 3.3899 1.4632 0.0837 2.1547 -0.6897 1.1810 1.9608 0.0105 -0.0257 -1.0032 -1.3365 0.1281 -3.0737 0.8024 -1.2983 -1.1147 0.4198 0.7139 1.3608
-0.7789 -0.0960 -4.1269 1.7512 -1.9576 -1.1282 -2.2126 0.7673 -2.5757 -0.4690 -2.3363 -1.4854 0.1721 0.7316 -2.1577 -0.7181 0.1456 0.1374 0.9604 0.9251 3.9999 0.7682 -0.4343 3.5318 0.6182 1.9627 3.2139 0.2515 -0.6603 2.3110 0.0593 1.7210 1.8964 0.3312 -0.1177 -0.9170 -1.0843 0.4687 -2.9334 0.4529 -1.5799 -1.2201 -0.1022 0.4602 1.4541
-2.0555 1.3051 -2.2132 1.7910 -1.8909 -1.5897 -1.7184 -0.3452 -3.7570 -0.2009 -2.6564 -0.8002 0.0911 0.3803 -2.3358 1.1561 0.4367 -0.0980 -0.1438 0.9030 3.9387 0.4438 -0.3448 3.4990 -0.3144 1.9266 3.0845 0.8315 -0.4823 2.2205 0.1052 1.7804 1.7039 0.1528 -0.2788 -0.9786 -1.3120 0.3702 -2.8510 0.5347 -1.7268 -1.1087 0.6387 0.6230 1.2854
-1.9144 1.5963 -2.5512 0.3992 -2.6103 -0.7756 -2.2301 -0.6069 -3.0585 2.2550 -1.4949 -1.4939 -0.0363 0.2079 -2.4711 0.8266 0.7712 -0.2180 -0.1607 0.5553 3.9468 1.1161 0.0734 3.4520 -1.0689 1.0557 3.0898 1.3947 0.1314 2.1369 -0.7607 1.1346 1.6722 0.1833 -0.3062 -1.0662 -1.5044 0.3170 -2.7253 1.0840 -1.5017 -1.1472 0.4165 0.6774 1.2092
-1.8567 1.1968 -1.8605 -0.3120 -2.4054 -2.0117 -0.8680 0.2724 -3.6977 1.9494 -2.2697 -1.7737 0.4175 0.6578 -1.6927 -0.4862 -0.7276 0.2635 0.3574 1.5970 3.7576 1.1364 0.4123 3.4525 -0.6353 1.9824 2.9366 0.8623 -0.3094 2.3511 -0.9313 1.2068 1.7453 0.5604 -0.5622 -0.8131 -0.8165 0.6598 -2.5405 0.8283 -1.8229 -1.5738 -0.2058 0.1119 1.4572
-2.4218 1.0584 -2.5585 2.1009 -0.2149 -1.3975 -0.5865 0.6636 -3.8567 1.3304 -2.3528 -1.1949 -1.1321 -0.8205 -2.0351 -0.7443 -0.9074 0.4078 0.8260 1.3701 3.6772 -0.1238 1.9609 2.7517 1.2112 0.0909 3.5225 -0.6182 1.2313 1.7357 0.6846 -0.6953 2.4213 -0.1718 -0.4641 -0.9229 -1.3144 0.3688 -2.9212 1.1397 -1.1466 -1.1806 -0.1801 -0.1426 1.5513
-2.5483 0.0088 -1.7186 0.9082 -2.0998 -1.9530 -1.3755 -0.5007 -3.6142 2.6020 -0.5861 -2.0669 -0.3575 0.8379 -1.8806 -0.1734 -0.6552 0.1609 0.1441 1.1949 3.9912 -1.0028 1.4371 3.1362 1.1630 0.4297 3.5600 -1.0508 0.8974 1.9053 1.0986 -0.1814 2.2450 0.5427 0.0320 -0.9765 -1.4517 0.0285 -2.5172 1.4686 -0.8872 -1.7230 0.0326 0.0441 1.4514
-1.5593 -1.3860 -3.3346 1.2453 -2.0066 -0.9485 -2.8875 0.1808 -2.3411 2.3771 -0.1896 -1.7376 -0.4942 0.4684 -2.3838 0.2585 1.1885 -0.1380 0.2511 0.0847 3.9984 -0.9886 0.1360 3.2439 1.4164 0.3950 3.4036 -0.9734 0.4905 1.9461 1.4353 0.7733 2.0023 0.0542 0.0001 -1.0548 -1.7837 -0.2360 -2.6555 1.3587 -0.7009 -1.2974 0.2900 0.8016 1.2972
-1.0860 0.9729 -3.4489 1.5052 -2.3908 -1.6580 -2.6102 0.8402 -1.7547 2.4329 -0.3125 -1.7268 -0.9248 -0.8654 -2.0115 -0.1834 -1.1752 0.3434 0.3130 1.5762 3.5852 -0.8562 1.6431 2.7269 1.2599 0.6472 3.3640 -0.9943 0.7752 1.7087 1.1129 -0.2887 2.2634 0.1531 -0.5590 -0.9973 -1.6427 0.3990 -2.3557 1.4818 -1.0461 -1.4955 0.0389 -0.2163 1.4568
-0.0176 1.1201 -3.4766 1.9920 -1.7129 -1.2918 -1.6463 1.8593 -2.0586 0.1826 -3.0994 -1.3112 -1.0440 -0.4751 -2.1063 -0.8513 -0.8211 0.3467 0.8288 1.6050 3.4474 1.1877 0.2045 3.3164 -0.0361 2.1625 2.5821 0.6612 -0.5359 2.3255 -0.6145 1.3621 1.5186 -0.0881 -0.7145 -0.9577 -0.9559 0.9602 -2.5136 0.6677 -1.9838 -1.2046 -0.2662 0.0689 1.3838
0.1191 1.3733 -2.8770 0.4250 -3.0714 -1.4408 -2.0069 1.6290 -2.0810 2.2049 -1.6542 -1.5641 -0.9568 -0.5406 -2.0409 -0.6178 -1.0978 0.3769 0.4856 1.7947 3.3366 1.3414 0.6612 3.0460 -0.6656 1.9564 2.6618 0.9722 -0.2425 2.1210 -1.0652 0.9805 1.6617 0.0514 -0.7874 -0.9417 -1.0309 0.9299 -2.3131 1.0183 -1.8579 -1.3411 -0.2748 -0.0730 1.3955
-2.5988 0.8253 -2.3700 2.4349 -0.2638 -1.8061 -2.2324 -1.4016 -2.7111 1.5890 -2.1497 -0.8499 -0.3730 0.1163 -2.4653 0.3714 1.0423 -0.2798 0.0891 0.3143 3.9302 -1.0906 0.2496 3.0868 1.2867 0.6107 3.3936 -0.9900 0.4894 1.7674 1.3976 0.8622 1.9680 0.1730 -0.2182 -1.0961 -1.8158 -0.2693 -2.5230 1.4514 -0.9945 -1.2280 0.3077 0.7870 1.1834
-2.7834 0.3724 -2.2038 2.3405 -0.2011 -1.8768 -1.8094 -1.4244 -3.2200 1.4348 -2.0853 -0.9729 -0.4514 0.3865 -2.3874 0.4088 1.1157 -0.1745 0.0989 0.2720 4.0124 -1.0870 0.3172 3.1759 1.3136 0.4709 3.4707 -0.9746 0.5738 1.8605 1.4363 0.7467 2.0501 0.1160 -0.0742 -1.0639 -1.7268 -0.3452 -2.6538 1.3449 -0.9071 -1.2892 0.3388 0.7819 1.2728
-2.4366 1.0372 -1.7372 2.4153 -0.7629 -1.4935 -0.7516 1.2515 -3.2634 1.2566 -2.7170 -1.6970 -0.9768 -0.7740 -1.9743 -0.3301 -1.1850 0.3838 0.3545 1.7537 3.4163 -0.8646 1.7655 2.6300 1.2834 0.8038 3.2080 -1.0683 0.8254 1.6894 1.0682 -0.2088 2.1904 0.1437 -0.6881 -0.9644 -1.3401 0.6086 -2.4080 1.2970 -1.5268 -1.4245 -0.0506 -0.1830 1.4442
-1.3761 0.8134 -3.1574 1.1205 -2.7334 -1.9414 -1.9225 1.3856 -1.0169 2.2619 -0.8680 -2.5772 -0.9678 -0.7788 -1.4943 0.5993 -1.1767 0.4180 -0.3039 1.7642 3.3943 -1.2557 0.7209 3.0576 0.8848 1.8204 2.7673 -0.9511 -0.1884 2.1150 1.2167 0.8362 1.7524 0.4566 -0.6626 -0.9990 -1.4707 0.5892 -1.8254 1.3815 -1.4037 -1.9183 0.3265 -0.1184 1.4253
-2.5546 0.9184 -1.9307 2.3900 -0.7786 -1.5075 -0.7063 1.3426 -3.1997 1.2451 -2.7517 -1.4900 -0.9426 -0.7691 -2.0552 -0.4437 -1.1041 0.3513 0.4645 1.6971 3.4581 -0.6935 1.8839 2.6031 1.2687 0.6338 3.2814 -0.9635 0.9950 1.6305 0.9774 -0.3282 2.2333 0.1173 -0.6630 -0.9836 -1.3509 0.6079 -2.4673 1.2774 -1.5383 -1.3525 -0.0852 -0.1456 1.4287
-1.1006 1.2220 -2.8741 1.2675 -2.7072 -1.9575 -2.2898 1.0326 -0.9352 2.4445 -0.8044 -2.3823 -0.9014 -0.7900 -1.6907 0.4479 -1.2397 0.3727 -0.3002 1.7938 3.2989 -1.2774 0.7545 3.0270 0.8741 1.8049 2.6435 -1.0134 -0.1920 2.1087 1.1620 0.7788 1.6564 0.4566 -0.6826 -1.0334 -1.5123 0.5729 -1.7581 1.4968 -1.3749 -1.8599 0.2457 -0.1688 1.3840
-2.1580 1.2241 -1.1544 2.3736 -1.1640 -2.1775 -0.7226 1.2982 -2.9269 0.9920 -2.9588 -1.9120 -0.9554 -0.7244 -1.6289 0.2880 -1.2585 0.4665 -0.1975 1.9647 3.2427 -1.3060 1.0901 2.9063 1.0114 1.7644 2.6884 -1.1282 0.0854 2.0301 1.2060 0.6766 1.7458 0.4057 -0.7998 -0.9720 -1.2351 0.6981 -1.9946 1.2549 -1.7806 -1.7235 0.1713 -0.1154 1.4100
-1.2973 1.9322 -2.3980 1.9961 -1.9700 -1.6690 -2.4554 -0.0213 -2.6247 0.1924 -2.9586 -0.6910 -0.0500 -0.0435 -2.4306 1.0860 0.3489 -0.2483 -0.2702 1.0062 3.7580 0.7221 -0.0108 3.4603 -0.7944 1.7470 2.7648 1.1232 -0.2103 2.1923 -0.3536 1.5417 1.3959 0.1846 -0.5771 -1.0361 -1.4041 0.5853 -2.4893 0.7646 -1.9594 -1.1032 0.5562 0.5899 1.1190
-1.9742 -0.1024 -3.3877 1.3630 -2.3888 -1.5189 -1.5278 1.8683 -2.3238 -0.7092 -2.6956 -0.6233 0.1222 0.1066 -2.3813 1.2363 0.1151 -0.1616 -0.0058 1.1342 3.8033 0.5816 -0.1607 3.5156 -0.1613 2.0370 2.8186 0.9634 -0.4638 2.2621 0.2522 1.7138 1.4655 0.0999 -0.4580 -0.9797 -1.1990 0.7428 -2.6663 0.1812 -1.9543 -1.0169 0.7774 0.5060 1.1945
-1.9356 0.0193 -2.9871 0.3903 -2.8975 -1.7694 -2.1038 1.1704 -1.0232 2.1299 -1.5861 -2.4428 0.0533 0.4712 -1.8457 1.3661 -0.2830 0.1409 -0.6432 1.3803 3.5373 -0.7002 -0.0448 3.2682 0.0415 2.1947 2.7149 -0.0660 -0.5546 2.1970 0.7248 1.6459 1.5573 0.4203 -0.7037 -0.9650 -1.4347 0.6028 -1.8728 1.0985 -1.7423 -1.8068 0.6589 0.3275 1.2973
-0.6499 0.4694 -3.7091 1.3155 -2.7574 -1.5170 -1.5232 1.5902 -1.9240 -0.8485 -2.3482 -2.1083 0.5983 0.4459 -1.7297 -0.6740 -0.5403 0.2471 0.7761 1.5146 3.7123 1.1679 0.1420 3.4474 -0.0592 2.1514 2.8724 0.7000 -0.4940 2.3584 -0.5589 1.4683 1.6926 0.4000 -0.7313 -0.8006 -0.6518 0.8947 -2.4230 0.1854 -2.0099 -1.5520 -0.1778 0.2045 1.4335
-1.0837 -0.1823 -3.9743 1.0895 -1.6354 -1.9284 -2.4745 -0.8701 -2.2997 2.4137 0.2048 -1.7312 -0.8359 0.8651 -1.8996 -0.4749 -0.5465 0.1770 0.5916 0.8422 4.0850 -0.4996 1.4552 3.3500 1.2841 -0.1734 3.5396 -0.8189 1.0099 2.1215 0.9389 -0.6573 2.2149 0.1521 0.2901 -0.9130 -1.5624 -0.1675 -2.7068 1.3406 -0.3567 -1.5606 -0.0606 -0.0781 1.5256
-1.5044 -0.4729 -3.8501 1.0238 -2.2947 -1.2988 -1.7899 1.5529 -2.8381 -1.0984 -2.2419 -0.4733 0.1970 0.2469 -2.4194 1.1751 0.3432 -0.1407 0.2211 0.8655 4.0027 1.0190 -0.2596 3.5527 -0.2207 1.7749 3.1162 1.3027 -0.4055 2.2461 0.0899 1.6227 1.7054 0.0206 -0.1686 -0.9755 -1.1373 0.5382 -3.0272 -0.1011 -1.6638 -0.8821 0.8027 0.5626 1.2821
-2.4320 0.3115 -2.6264 2.1769 -1.0577 -1.3493 -0.8291 -0.5228 -4.0184 0.1966 -2.1882 -1.3149 -0.2119 0.9327 -2.1918 -0.8019 0.1840 0.1333 0.8710 0.6660 4.0441 0.7779 1.7947 3.1358 0.4285 -0.5456 3.6643 0.2488 1.6301 1.9094 -0.1398 -0.7252 2.3406 0.2545 0.2113 -0.9480 -1.1560 0.1409 -3.0463 0.8295 -1.1480 -1.2244 -0.2129 0.3161 1.4919
-0.7092 0.5986 -3.8802 2.1187 -0.1032 -1.4137 -2.4732 1.0656 -2.5080 1.4394 -2.2686 -1.1848 -1.0716 -0.8485 -2.0792 -0.7252 -0.8966 0.3702 0.8386 1.3056 3.6942 -0.0712 1.9349 2.7536 1.1844 0.0155 3.5379 -0.5642 1.2308 1.7188 0.6588 -0.7430 2.4172 -0.1464 -0.4425 -0.9543 -1.5111 0.3768 -2.8114 1.1959 -1.0713 -1.1900 -0.1637 -0.1542 1.5299
-2.6399 0.6583 -1.5858 1.6701 -2.1795 -1.4260 -2.0964 -1.4264 -2.3403 2.5451 -0.2846 -2.3441 -0.4174 0.3041 -2.2186 0.8837 0.9365 -0.2037 -0.4952 0.3557 3.8067 -1.3213 1.0371 2.8259 0.7273 -0.0903 3.4657 -0.8678 1.2169 1.5727 1.2165 0.1011 2.1113 0.4618 -0.2083 -1.1012 -1.7844 -0.2790 -2.0601 1.6769 -0.8518 -1.6987 0.4410 0.7103 1.1962
-1.6210 1.6728 -1.1141 2.2840 -1.5599 -2.2752 -2.2013 -0.1419 -2.3694 0.6309 -3.0678 -1.8514 0.1194 0.3114 -1.8809 1.3374 -0.4156 0.1950 -0.8234 1.5672 3.3166 -1.0691 0.1669 3.0224 0.0930 2.2536 2.6110 -0.3789 -0.4473 2.0450 0.8326 1.5935 1.5504 0.4509 -0.8403 -0.9570 -1.3553 0.5544 -1.8298 1.1059 -1.9474 -1.7283 0.5948 0.3003 1.2658
-0.2837 1.2596 -3.1289 0.2285 -3.1042 -1.7144 -1.5246 1.8290 -1.3008 2.0961 -1.8441 -2.0461 -1.0160 -0.4856 -1.7500 -0.1728 -1.2762 0.4739 0.1873 1.9708 3.2431 1.3685 1.3267 2.6983 -1.0376 1.5485 2.8816 1.2405 0.3060 1.8315 -1.1771 0.4499 1.9427 0.1991 -0.8663 -0.9349 -0.9817 0.9877 -2.0011 0.9564 -1.9654 -1.6186 -0.0829 -0.1364 1.4239
-2.6200 0.5927 -1.6051 2.4020 -0.4500 -2.2802 -2.0764 -1.2913 -2.7745 1.5433 -2.3259 -1.3168 -0.3832 0.3387 -2.2396 0.9145 0.8699 -0.1867 -0.3911 0.5474 3.8771 -1.2689 1.0898 2.8555 0.8457 0.1312 3.5517 -0.8472 1.1735 1.5812 1.3012 0.2190 2.1756 0.3765 -0.2367 -1.0668 -1.7620 -0.2353 -2.2468 1.4836 -1.1267 -1.5497 0.4820 0.7037 1.2251
-2.5352 0.8247 -1.4611 1.7231 -2.2531 -1.3723 -2.1761 -1.2956 -2.2250 2.4982 -0.4292 -2.5016 -0.3740 0.3102 -2.1879 1.0134 0.8153 -0.1877 -0.6271 0.4475 3.7489 -1.1917 1.3776 2.7878 0.4301 -0.3123 3.4112 -0.6631 1.4752 1.5549 1.0049 -0.2041 2.0822 0.5143 -0.2730 -1.1130 -1.7714 -0.1722 -1.9675 1.6870 -0.9521 -1.7525 0.4676 0.6409 1.1836
-0.8387 -0.4304 -4.0346 2.1942 -1.0131 -1.3035 -2.4958 0.1643 -2.5826 0.2121 -2.1381 -1.3715 -0.2282 0.9328 -2.2331 -0.7823 0.2282 0.1222 0.8999 0.5927 4.0429 0.8247 1.7418 3.1592 0.4399 -0.6031 3.6340 0.2986 1.6124 1.9281 -0.1245 -0.7453 2.3039 0.2612 0.2569 -0.9720 -1.3255 0.1866 -2.9310 0.8433 -1.1007 -1.2398 -0.1791 0.3150 1.4779
-0.0004 1.1368 -3.2237 1.7446 -2.1823 -1.8491 -0.9539 2.0791 -1.3770 -0.2940 -3.1959 -1.7206 -1.0803 -0.3048 -1.7272 -0.4565 -1.2049 0.5186 0.5182 2.0055 3.1822 1.5517 1.1170 2.6821 -0.7599 1.8346 2.8001 1.2298 0.1084 1.8524 -1.1086 0.7459 1.9044 0.0156 -0.9347 -0.8951 -0.6844 1.0995 -2.0556 0.4289 -2.2308 -1.5252 -0.1507 -0.0733 1.4338
-2.3880 -0.7321 -2.4606 2.2321 -1.3900 -2.2142 -2.1913 1.3751 -1.6047 0.9102 -2.8530 -1.0724 -0.2254 0.1464 -2.2815 1.1903 0.4576 -0.2448 -0.4171 0.9725 3.6928 -0.7967 1.8609 2.6079 0.4584 -0.0248 3.4702 -0.2815 1.6809 1.3785 1.0146 -0.2183 2.1433 0.3608 -0.5116 -1.0562 -1.6898 0.3583 -2.0602 1.1732 -1.7145 -1.4320 0.6504 0.5927 1.1341
-2.0459 1.2030 -1.0179 0.9045 -2.7701 -1.9184 -2.0992 -0.3967 -2.6437 2.4723 -1.1823 -2.3913 0.0110 0.4655 -1.8532 1.3868 -0.1023 0.1519 -0.9623 1.1901 3.4892 -0.2836 2.1453 2.6327 -0.8501 -0.1284 3.2489 0.4494 1.7137 1.5912 -0.0541 -0.5970 2.1281 0.5612 -0.6520 -0.9935 -1.4783 0.3469 -1.8999 1.4362 -1.5252 -1.8419 0.5523 0.2896 1.3179
-0.1267 1.0971 -3.1885 1.5904 -2.1299 -2.2627 -0.8445 2.0674 -1.2516 -0.2882 -3.2532 -1.6204 -1.0695 -0.3118 -1.5716 -0.2083 -1.2850 0.5679 0.3531 2.1009 3.1311 1.4925 1.4266 2.5353 -0.8941 1.6613 2.8863 1.3030 0.3609 1.7371 -1.0998 0.5144 2.0198 0.1032 -0.9752 -0.8821 -0.6763 1.0799 -1.9509 0.4114 -2.2517 -1.6039 -0.0462 -0.1018 1.4544
-1.9129 0.0614 -2.9850 0.4281 -2.8230 -1.9947 -2.1358 1.0856 -0.9574 2.2358 -1.4928 -2.3993 0.0501 0.4898 -1.7885 1.3493 -0.3399 0.1761 -0.6936 1.3597 3.5323 0.0738 2.1901 2.6225 -0.7686 0.0317 3.3331 0.7031 1.6335 1.5724 -0.0852 -0.5717 2.2022 0.4337 -0.7235 -0.9687 -1.4410 0.5863 -1.8294 1.1568 -1.6879 -1.8603 0.6065 0.2009 1.3447
-1.5045 1.7335 -1.1917 2.1302 -1.8101 -2.1766 -1.9749 0.1708 -2.7882 0.2829 -3.0935 -1.8196 0.2475 0.3367 -1.8630 1.2346 -0.5617 0.2604 -0.7103 1.6088 3.3956 0.2922 2.2389 2.5556 -1.0442 0.3211 3.1964 0.8842 1.5368 1.5732 -0.3993 -0.4405 2.1413 0.3519 -0.8545 -0.9349 -1.1929 0.7057 -2.0168 0.8909 -2.0417 -1.6783 0.5118 0.1499 1.3467

>  <OB_ATOM_TYPES> (1hytA1)
O.co2 O.co2 O.co2 O.co2 C.3 C.3 C.ar C.ar C.ar C.ar C.ar C.3 C.2 C.2 C.ar

>  <ENSEMBLE_RMSD> (1hytA1)
0.567 1.077 1.168 1.186 1.198 1.225 1.226 1.226 1.273 1.323 1.355 1.376 1.391 1.418 1.437 1.442 1.447 1.482 1.490 1.500 1.502 1.508 1.513 1.516 1.527 1.527 1.529 1.535 1.548 1.580 1.592 1.597 1.631 1.639 1.646 1.653 1.674 1.695 1.695 1.754 1.782 1.784 1.792 1.858 1.897 1.976 1.989 1.996 2.066 2.104

$$$$
