
 OpenBabel03071213D

 52 56  0  0  0  0  0  0  0  0999 V2000
   53.1100   21.2670    8.0860 C   0  0  0  0  0
   52.1190   22.2390   10.1900 C   0  0  0  0  0
   51.2960   23.7250   -2.9430 C   0  0  0  0  0
   50.3780   24.6280   -0.8370 C   0  0  0  0  0
   49.5390   22.4760   -1.7710 C   0  0  0  0  0
   54.3140   25.0130    3.9610 O   0  0  0  0  0
   50.9440   22.2480    5.9090 O   0  0  0  0  0
   50.7620   22.3690    1.3240 O   0  0  0  0  0
   51.3430   25.7060    9.4470 O   0  0  0  0  0
   54.0890   19.7600    3.0150 C   0  0  0  0  0
   54.5560   21.1930    2.8130 C   0  0  0  0  0
   52.1960   17.4370   -0.0230 C   0  0  0  0  0
   52.8120   20.0880    0.9100 C   0  0  0  0  0
   53.5850   23.4420    2.3560 C   0  0  0  0  0
   51.4160   25.4160    3.7840 C   0  0  0  0  0
   52.0990   24.1560    5.7720 N   0  0  0  0  0
   50.3850   23.9520    8.3540 N   0  0  0  0  0
   51.7940   22.7030   -0.8470 N   0  0  0  0  0
   53.1650   17.5350    1.5340 S   0  0  0  0  0
   47.5730   26.0640    5.6970 C   0  0  0  0  0
   48.6470   26.9110    5.9710 C   0  0  0  0  0
   47.7280   25.0780    4.7250 C   0  0  0  0  0
   43.9390   26.0770    9.1660 C   0  0  0  0  0
   44.2400   24.8150    8.7260 C   0  0  0  0  0
   52.7490   14.0460   -1.5650 C   0  0  0  0  0
   54.1210   14.1720   -1.8590 C   0  0  0  0  0
   49.8930   26.7020    5.3640 C   0  0  0  0  0
   48.9840   24.8750    4.1350 C   0  0  0  0  0
   52.0640   15.1290   -0.9970 C   0  0  0  0  0
   44.9760   26.9170    9.5120 C   0  0  0  0  0
   45.5720   24.4010    8.5860 C   0  0  0  0  0
   47.3710   27.3240    9.7940 C   0  0  0  0  0
   48.6900   26.8800    9.6820 C   0  0  0  0  0
   54.1660   16.3480   -1.0320 C   0  0  0  0  0
   54.8030   15.2850   -1.5790 N   0  0  0  0  0
   47.8780   24.8580    8.9010 N   0  0  0  0  0
   51.9010   21.9640    8.6910 C   0  0  0  0  0
   53.4760   23.8610    3.8000 C   0  0  0  0  0
   53.8300   19.2190    1.6500 C   0  0  0  0  0
   52.0770   24.1240    4.3100 C   0  0  0  0  0
   52.9690   21.5890    0.9340 C   0  0  0  0  0
   51.6110   23.2770    7.9600 C   0  0  0  0  0
   53.4340   22.0090    2.2870 N   0  0  0  0  0
   51.5490   23.1620    6.4610 C   0  0  0  0  0
   51.6990   22.2850    0.4860 C   0  0  0  0  0
   50.3060   25.1110    9.0520 C   0  0  0  0  0
   52.7850   16.2890   -0.7470 C   0  0  0  0  0
   50.0830   25.6760    4.4390 C   0  0  0  0  0
   46.3170   26.4950    9.4140 C   0  0  0  0  0
   48.9630   25.5910    9.2450 C   0  0  0  0  0
   46.5990   25.2460    8.9670 C   0  0  0  0  0
   50.7680   23.3700   -1.5610 C   0  0  0  0  0
  1 37  1  0  0  0
  2 37  1  0  0  0
  3 52  1  0  0  0
  4 52  1  0  0  0
  5 52  1  0  0  0
  6 38  1  0  0  0
  7 44  2  0  0  0
  8 45  2  0  0  0
  9 46  2  0  0  0
 10 11  1  0  0  0
 10 39  1  0  0  0
 11 43  1  0  0  0
 12 19  1  0  0  0
 12 47  1  0  0  0
 13 39  1  0  0  0
 13 41  1  0  0  0
 14 38  1  0  0  0
 14 43  1  0  0  0
 15 40  1  0  0  0
 15 48  1  0  0  0
 16 40  1  0  0  0
 16 44  1  0  0  0
 17 42  1  0  0  0
 17 46  1  0  0  0
 18 45  1  0  0  0
 18 52  1  0  0  0
 19 39  1  0  0  0
 20 21  1  0  0  0
 20 22  2  0  0  0
 21 27  2  0  0  0
 22 28  1  0  0  0
 23 24  2  0  0  0
 23 30  1  0  0  0
 24 31  1  0  0  0
 25 26  2  0  0  0
 25 29  1  0  0  0
 26 35  1  0  0  0
 27 48  1  0  0  0
 28 48  2  0  0  0
 29 47  2  0  0  0
 30 49  2  0  0  0
 31 51  2  0  0  0
 32 33  2  0  0  0
 32 49  1  0  0  0
 33 50  1  0  0  0
 34 35  2  0  0  0
 34 47  1  0  0  0
 36 50  2  0  0  0
 36 51  1  0  0  0
 37 42  1  0  0  0
 38 40  1  0  0  0
 41 43  1  0  0  0
 41 45  1  0  0  0
 42 44  1  0  0  0
 46 50  1  0  0  0
 49 51  1  0  0  0
M  END
>  <MOLID> (1idaB1)
1idaB1

>  <SMILES_CANONICAL> (1idaB1)
O[C@@H]([C@@H](NC(=O)[C@H](C(C)C)NC(=O)c1ccc2c(n1)cccc2)Cc1ccccc1)CN1CC[C@H](C[C@H]1C(=O)NC(C)(C)C)SCc1cccnc1	

>  <FINGERPRINT> (1idaB1)
0000000000000001100000000000001000000001000000000111110000000000000000000001000001100101000010100001010000010001000011100101000000000000000001000001000010100000000000100001000000000000000000100000000000000000000000000000000000100010000000000011000000001101100001000101000000001000100000000000000000001001010010011110000000001000001110010000000000000100010100000000010110110000000000000000011000000001100110000000101001000000011101000010000000000010100001000001101000000100010000000000001000001100000000010000110000010100000000000000000000010000000000100000000000000001000001100000000001100000001000000000000000000000000000000000001000000001010000000000000000000001000000000011100000101011100001100001100000100011100000000010001101000001100000110101000000000000000111000000000000010100000000000000000011000000000000000000000000000000000010100000000000000010010000001001000000000001000000000000000000001100010000000001000100000100000000000000011000000000001100111010000000000100010000000000000100000001000000010110011000000000

>  <MACCS166> (1idaB1)
000000000000000000000000010000000000000000001000010001000000000111000000011101111000110101110010011100011001011100001111110010011011000111111100111111111111111110111000

>  <OB_MW> (1idaB1)
724.377

>  <OB_logP> (1idaB1)
6.2643

>  <OB_PSA> (1idaB1)
161.85

>  <OB_MR> (1idaB1)
212.332

>  <OB_ATOMIC_CHARGES> (1idaB1)
0.0022755668 0.0022755668 0.021726159 0.021726159 0.021726159 -0.2197907874 -0.2714869183 -0.2718900415 -0.2666982914 0.0281835953 0.0734153455 0.0852563906 0.0362147607 0.1074848533 0.0506466301 -0.2027462943 -0.1927380246 -0.2077044094 -0.1361480462 -2.00181e-05 -0.000321828 -0.000321828 9.78333e-05 0.0015446146 0.0203847804 0.098862593 -0.0042099893 -0.0042099893 -0.0002777972 0.001496997 0.0190986311 0.0031913896 0.0238265524 0.0954349143 -0.242620584 -0.2407196146 0.0289730364 0.1879323008 0.0511964978 0.1313190175 0.137380257 0.1730034282 -0.2642313026 0.2612584886 0.2557847017 0.2829015371 0.0078523552 -0.0203766107 0.017702504 0.1360960265 0.0814202036 0.0788225287

>  <MCT_HBD> (1idaB1)
4

>  <MCT_HBA> (1idaB1)
10

>  <ENSEMBLE_TOTAL> (1idaB1)
50

>  <ENSEMBLE_COORDS> (1idaB1)
2.6313 -0.5915 6.1026 1.3152 -2.0986 4.6484 -0.1990 -0.9513 -6.3061 0.5871 1.3098 -6.8346 -1.1385 1.0076 -5.1252 2.6026 3.1412 -0.0177 1.7761 -0.7661 1.9338 0.0145 -0.7743 -3.0123 0.7292 2.7727 5.5076 3.7291 -2.1281 -0.8511 3.6490 -0.6185 -0.8906 1.9034 -4.7008 -2.2499 2.6746 -2.0985 -3.1098 2.3638 1.2591 -1.4772 -0.1640 2.5909 0.1911 0.9784 1.4040 1.9733 0.2552 0.6585 4.6191 1.1641 0.3067 -4.7228 3.7049 -4.4689 -2.1979 -3.7946 1.2363 -1.6431 -3.1793 2.4970 -2.0144 -3.2282 0.4642 -0.6989 -6.0462 3.6568 3.9571 -5.3027 3.9211 2.8686 0.7342 -5.2359 -5.8478 0.6690 -6.5758 -5.8417 -2.0307 2.8834 -1.4310 -2.0005 0.8932 -0.0527 1.1403 -4.5588 -4.6405 -5.4330 3.0495 5.1233 -3.8872 3.6024 2.8614 -3.5313 2.1408 6.2990 -2.2247 1.8515 6.3070 1.3450 -6.7348 -3.6958 0.9619 -7.3715 -4.7591 -1.9632 2.7369 3.9716 2.1902 -0.8661 4.6861 2.2341 1.7769 -0.0621 3.7910 -2.6589 -2.2628 0.8660 1.5377 0.5409 2.4246 -0.6113 -2.9306 1.5525 0.3613 4.0609 2.4003 -0.2002 -1.5230 1.4318 0.2359 2.5555 1.0557 -0.3747 -3.5246 -0.0329 1.9142 5.0939 1.4915 -5.2647 -3.5577 -1.4020 2.0401 -0.4267 -4.1202 2.7470 5.1291 -1.4986 2.2070 5.0583 -3.3059 3.0394 3.9382 0.1157 0.4062 -5.7188
1.5214 -2.2862 5.2758 -0.0306 -2.9118 3.4568 -0.7855 -0.3027 -6.3699 -1.2137 2.0705 -5.9297 -2.2305 0.3766 -4.4864 3.0476 2.8857 0.4599 0.9853 -1.0705 1.2180 -0.0228 -1.1396 -3.1804 0.6576 1.5056 5.6430 3.0620 -2.1872 -1.8395 3.2612 -0.7905 -1.2909 3.4201 -4.6156 -4.5985 2.9831 -0.8587 -3.9823 2.5133 1.4514 -1.3692 0.3025 3.0987 0.5436 0.8110 1.1394 1.8859 -0.3005 -0.0697 4.1990 0.1762 0.8143 -4.4251 2.1566 -3.4348 -4.0670 -3.3817 3.4548 -1.5987 -2.1075 3.6002 -2.2794 -3.4154 3.1528 -0.2886 -5.6212 4.4548 4.6449 -4.7842 4.8439 3.6681 2.9356 -7.8368 -2.6174 2.1264 -8.4827 -3.4709 -0.9581 3.4433 -1.5988 -2.1748 2.9953 0.4489 3.4308 -6.5321 -2.9838 -5.2291 3.4001 5.5601 -3.4873 4.2095 3.5293 -3.6585 1.7510 6.3587 -2.4616 1.1638 6.2456 2.2118 -6.8367 -5.0100 1.7529 -8.0122 -4.7081 -1.8896 2.6008 4.2670 1.1410 -2.0346 3.8368 2.3696 1.6901 0.1177 3.2577 -2.2018 -3.3389 0.9213 1.7157 0.5674 2.0662 0.0693 -3.2045 0.9104 -0.5566 3.5819 2.1907 0.0840 -1.7522 0.8816 -0.2242 2.1022 0.6283 -0.1776 -3.5769 -0.2789 1.0246 5.0266 3.0583 -5.9773 -4.1440 -0.9937 3.1232 -0.1820 -4.0300 2.7985 5.4382 -1.6206 1.6744 5.1311 -3.1134 3.2231 4.3670 -0.9913 0.7246 -5.2802
2.8047 2.4034 5.4956 2.4813 0.1951 4.4177 -0.1614 -1.2999 -6.0952 1.6244 0.3572 -6.3754 -0.4878 1.0255 -5.3363 4.1915 1.5537 -0.3522 0.0000 1.0191 1.8780 -0.8160 -0.6846 -2.8490 -0.9628 3.6154 5.3515 2.4731 -3.0555 -0.1902 2.0177 -1.6559 0.1612 0.7237 -5.8271 -2.6471 0.5931 -2.9919 -1.8387 2.5321 0.1358 -1.3000 2.1678 3.4096 -0.7459 1.7462 2.4791 1.4530 -0.0414 1.6508 4.4820 1.0797 -0.4469 -4.1763 2.1251 -5.2650 -1.6420 -1.2436 4.8857 -2.8637 -0.2442 4.0706 -3.5298 -1.1113 5.1819 -1.5585 -6.9416 0.1323 5.3869 -6.9366 1.1969 4.5662 1.3933 -4.9221 -6.2949 1.9376 -6.0816 -6.6939 0.8108 3.5998 -2.8413 0.0364 4.6895 -0.8179 0.9421 -4.8014 -4.9294 -5.7048 -0.3187 5.9960 -5.6927 1.8865 4.2788 -3.3366 -0.1155 6.4031 -2.1988 0.5590 6.2030 1.6858 -7.0518 -4.6745 2.0947 -7.1915 -5.8976 -3.3412 2.1143 4.5971 2.4056 1.6913 4.2265 2.8854 1.0475 -0.1456 1.3533 -3.8380 -0.8383 1.8739 2.1576 0.0521 1.2740 -1.6708 -2.1499 1.0619 2.1854 3.7208 1.5208 -0.8592 -0.9569 0.8577 1.8058 2.2689 0.3721 -0.8910 -3.0757 -1.0204 2.4424 5.0222 1.0987 -5.8249 -4.0801 0.9494 3.9132 -1.4296 -4.5460 0.3226 5.7504 -2.2990 1.6912 5.2401 -4.5378 1.4777 4.8383 0.5102 -0.1025 -5.4636
3.5413 0.9818 4.4730 1.8914 -0.3841 5.6533 -2.3910 0.7867 -4.9926 -1.7838 2.9699 -4.0569 -3.1907 1.4497 -2.7515 4.2961 0.9181 -0.0904 0.0672 0.8749 1.8360 -1.5467 -1.1222 -2.4006 -0.8400 3.1877 5.2283 1.1770 -3.0144 -1.2297 1.7957 -1.7397 -0.7155 2.4239 -5.6922 -3.0298 1.0339 -1.9963 -3.4811 2.3855 0.4348 -1.4242 2.9910 3.3540 0.0333 2.0499 2.0710 1.8670 -0.1636 1.0686 4.5020 -0.8279 0.9687 -3.1267 0.9441 -4.6937 -3.3249 0.3933 6.2433 -1.7540 1.0689 5.2464 -2.5651 0.5808 6.2704 -0.4225 -7.0271 0.4895 3.3062 -6.4249 1.0281 2.2319 2.1826 -9.1286 -4.6680 2.8906 -8.8736 -5.7788 1.8802 4.3439 -1.9856 1.4600 5.3001 0.2041 1.9981 -8.0694 -3.7049 -6.2938 0.3387 4.5490 -5.0430 1.4619 2.3157 -4.2980 0.5759 5.8856 -3.0275 0.9863 5.9784 3.2700 -6.7262 -5.2062 3.4652 -7.6621 -6.0832 -3.0461 1.7453 3.5844 2.1853 0.3241 4.3503 2.8839 0.8220 -0.0502 1.5854 -3.1434 -2.6723 2.2405 2.1031 0.4371 0.8046 -0.7044 -2.7152 1.1430 1.3634 3.9597 1.2992 -0.5333 -1.3568 1.0000 1.3868 2.4486 -0.6566 -0.3429 -2.7257 -1.0549 2.0490 4.8507 2.4801 -6.8452 -3.9547 2.0707 4.3647 -0.5453 -5.0094 0.7355 4.6400 -2.4710 1.5801 4.7328 -4.3524 1.3298 3.4645 -2.0311 1.5173 -3.7194
1.3580 0.0634 5.3667 0.5255 -1.2217 3.4148 -2.5326 1.2878 -5.4387 -3.2571 0.2884 -3.3218 -2.8597 -1.1356 -5.3024 4.3445 0.4025 -0.1489 -0.2001 1.3668 1.0681 -1.0984 -1.9768 -2.8578 -1.1995 3.5979 4.1503 2.2516 -2.6629 -1.3104 1.2483 -1.6260 -0.8514 2.7273 -5.6901 -2.8969 1.8535 -1.8958 -3.6489 2.4853 0.2860 -1.6286 3.5440 3.0021 0.1407 2.0034 1.8332 1.6192 -0.9118 1.3220 3.6760 -0.9925 -0.0540 -4.1646 3.3929 -4.0525 -3.2755 1.8188 6.8979 -0.2538 2.0738 6.0755 -1.4229 2.1334 6.4441 0.9724 -7.6756 0.9924 5.1305 -7.4799 1.1799 3.8138 1.9714 -7.6942 -6.0517 3.1343 -8.3555 -6.1544 2.6176 4.8534 -1.2821 2.7273 5.1287 1.1251 1.7918 -6.7720 -4.9559 -6.5672 1.1318 6.0561 -6.1631 1.5333 3.3194 -4.2473 1.5819 6.5467 -3.0270 1.9040 6.1013 4.0041 -7.3870 -4.3144 4.1928 -8.2242 -5.2868 -3.8695 2.0191 3.7376 1.1918 0.0557 3.8676 2.9395 0.5596 -0.2137 1.9647 -3.0935 -2.7298 2.4874 1.9231 0.2634 0.9860 -0.7835 -3.0889 0.5012 1.3184 3.3889 1.2185 -0.4334 -1.6929 0.6930 1.4982 1.8995 -0.4800 -1.0270 -3.3267 -1.5648 2.4350 4.1360 2.7896 -6.5644 -4.0877 2.9423 4.3573 0.0440 -5.3379 1.4543 5.6098 -2.9350 2.1018 4.6302 -5.1283 1.6732 4.1697 -2.3861 0.0812 -4.5402
2.5215 1.4087 5.8674 2.1061 -0.4951 4.3365 -2.0715 -0.9229 -4.8902 -1.7293 1.4390 -4.3303 -2.9743 0.0065 -2.7866 4.4583 0.8838 -0.0975 0.0563 1.0365 1.7867 -1.1102 -2.1846 -1.9026 -0.8622 3.4300 5.3643 1.8431 -3.4900 -0.2900 2.2347 -2.0537 -0.0642 3.2129 -5.9508 -3.1554 1.5513 -3.0375 -2.6891 2.5843 -0.0385 -1.2429 2.8957 3.1598 -0.3403 2.1047 2.1116 1.7037 -0.1703 1.4041 4.4269 -0.5615 -0.2620 -3.0931 1.9241 -5.6013 -1.9317 0.0410 5.2999 -2.6996 0.8576 4.2525 -3.2863 0.1678 5.6046 -1.3960 -7.3069 1.2533 4.1831 -6.9788 2.3832 3.5330 1.5113 -6.8391 -6.4551 1.6316 -5.6522 -7.0692 1.7419 3.5830 -2.5259 1.1270 4.8875 -0.5751 2.0577 -6.9930 -5.1282 -6.2810 0.4815 4.8582 -5.5974 2.8258 3.4977 -4.0040 0.1375 5.5724 -2.7434 0.5831 5.6180 2.7457 -4.7216 -5.3453 2.2629 -4.5529 -6.5371 -3.3193 2.5215 4.1307 2.2562 1.0044 4.4378 3.0667 0.6484 0.0161 2.3047 -3.8588 -1.6730 2.2967 1.9217 0.2878 1.2040 -1.6222 -2.2633 1.0955 1.7849 3.8467 1.6194 -1.0969 -0.9691 1.0021 1.5831 2.3477 -0.2840 -1.4172 -2.3868 -1.0721 2.3226 4.8975 2.6431 -5.9525 -4.5218 1.8730 3.9072 -1.1153 -4.9980 0.8919 4.8492 -2.4838 1.8207 4.8309 -4.6363 2.1211 4.1253 -1.8144 0.0433 -3.7566
2.1716 1.6568 5.8591 1.6955 -0.3082 4.4258 -1.6682 -0.3264 -5.1326 -0.7145 1.9232 -4.9743 -2.2280 1.1337 -3.2199 4.5309 1.0108 0.2889 0.0012 1.2048 1.6391 -0.9446 -1.5373 -2.2509 -1.2524 3.7760 4.8731 1.8544 -3.2882 -0.3542 2.1369 -1.8495 -0.0017 1.0072 -5.5683 -2.9160 1.6834 -2.7569 -2.7239 2.8136 0.1252 -1.0990 3.0930 3.3255 -0.2278 2.0077 2.3606 1.7150 -0.4634 1.6607 4.2566 0.0189 0.2100 -3.4509 2.5605 -5.3127 -2.0159 0.5679 5.4437 -2.9561 0.3813 5.5675 -1.5220 1.5531 4.6688 -3.4439 -6.9480 -0.4541 5.0911 -6.1880 -0.7277 6.1656 1.5669 -5.7113 -6.6875 1.8552 -7.0165 -6.8043 1.1927 4.9051 -0.6790 2.4213 3.9415 -2.5354 1.2600 -5.1837 -5.3798 -6.4566 0.4481 4.0664 -4.8811 -0.1139 6.3039 -4.7656 1.9008 3.1392 -3.5422 2.4354 3.2364 1.5859 -7.4129 -4.6010 1.8680 -7.9150 -5.7635 -3.1730 1.3082 5.4500 1.9396 1.1824 4.4456 3.1304 0.8203 0.2051 2.4657 -3.5386 -1.7036 2.3724 2.1227 0.3409 1.4534 -1.3101 -2.3241 0.8519 1.9954 3.7681 1.7309 -0.8436 -0.9712 0.8778 1.7892 2.2685 0.0360 -0.9198 -2.6546 -1.4056 2.6126 4.5433 1.2890 -5.9871 -4.3090 2.2373 4.0426 -1.2070 -5.2416 1.0188 4.1784 -2.7911 2.0548 4.4632 -4.4145 0.7245 5.3591 -1.1331 0.7121 -4.1734
1.0631 1.3149 5.3161 0.7232 -0.5811 3.7474 -0.6797 -0.2677 -6.3123 0.0243 2.0213 -5.7867 -1.9307 1.0731 -4.6551 4.6092 0.8289 0.0024 -0.2990 1.2733 0.7036 -0.8749 -1.5040 -3.2641 -1.8998 3.7980 3.5377 1.7276 -3.0493 -0.5949 1.2843 -1.6123 -0.4178 0.8597 -5.6548 -3.6394 1.7814 -2.7566 -3.0111 2.9732 -0.1997 -1.3769 3.2189 3.1375 -0.3221 1.8312 1.9647 1.2979 -1.2141 1.5827 3.2162 0.3193 0.2863 -4.1545 1.6898 -5.2985 -2.0666 0.9113 6.7313 -0.6653 1.1087 5.8599 -1.8097 1.4550 6.4157 0.5235 -6.7018 -0.0791 7.0353 -5.5944 -0.0010 7.7933 3.5091 -6.7612 -6.1544 3.4081 -8.0879 -5.9798 1.8268 4.7294 -1.6820 2.2422 5.2031 0.6585 2.6351 -5.8934 -5.4013 -6.6954 0.4494 5.6842 -4.3932 0.6133 7.2611 -5.5911 1.5143 3.8205 -4.4739 2.0405 3.3043 1.7390 -7.9003 -4.4767 2.5093 -8.7043 -5.1416 -3.2450 1.6729 5.4634 1.0607 0.8846 3.8712 3.2172 0.5990 -0.1161 1.1782 -3.5790 -1.8965 2.4115 1.8844 -0.0231 1.4859 -1.2818 -2.8334 0.1983 1.7978 3.0201 1.6180 -0.7045 -1.5052 0.5149 1.6320 1.5490 0.1667 -0.8773 -3.4259 -2.0490 2.5915 3.6237 1.7652 -6.4171 -4.5282 2.4010 4.3792 -0.3943 -5.5839 1.0151 5.1748 -3.3082 2.0581 4.2288 -4.3733 1.1043 6.0073 -0.5597 0.7542 -5.2053
2.4109 2.2391 5.6928 1.9699 0.1127 4.4996 0.3010 -1.1014 -6.2966 2.2581 0.3770 -6.3028 0.1060 1.2284 -5.5145 4.2479 1.2248 -0.0734 -0.1946 1.2974 1.7784 -0.6802 -0.4048 -3.1106 -1.3251 3.9095 4.9417 2.0294 -3.1374 -0.1451 1.7022 -1.6977 0.1886 0.1872 -5.6671 -2.7812 0.3273 -2.8615 -1.9548 2.5086 0.0516 -1.1862 2.5069 3.3100 -0.6065 1.8023 2.4466 1.5545 -0.3666 1.8444 4.3997 1.3683 -0.4166 -4.2145 1.5200 -5.3172 -1.6017 -0.4676 5.1072 -3.1027 0.1103 5.8302 -1.9846 -0.0786 3.8466 -3.3619 -6.4734 -0.8095 6.1639 -5.5407 -0.9763 7.1175 1.4100 -4.8494 -6.3041 1.8483 -6.0687 -6.6528 1.0304 5.2379 -1.2025 0.9311 3.2142 -2.5335 0.8136 -4.6733 -5.0019 -6.2132 0.0717 5.0407 -4.2832 -0.2581 7.0347 -4.7948 1.5885 3.8079 -3.6265 2.2346 3.7095 1.2303 -7.0003 -4.6952 1.7676 -7.1895 -5.8605 -2.8592 1.2765 5.8999 2.0767 1.6133 4.3605 2.8765 0.8819 0.0248 0.8803 -3.7827 -0.8862 2.0026 2.1112 0.1666 1.1823 -1.6274 -2.1797 0.8502 2.2629 3.7436 1.3825 -0.8475 -0.9560 0.7385 1.9274 2.2688 0.4915 -0.7568 -3.2015 -1.3771 2.7122 4.7184 0.7316 -5.7097 -4.1580 1.4493 3.8751 -1.4826 -5.0442 0.7344 4.9448 -2.6899 2.0047 4.8422 -4.0345 0.5701 6.0023 0.9999 0.0106 -5.5498
2.3133 0.4106 5.9635 1.6136 -1.1018 4.1279 -2.6866 -1.7385 -4.8489 -3.0339 0.6812 -4.7494 -3.6585 -0.7011 -2.8267 4.3355 0.5770 0.1380 -0.0415 1.2170 1.8780 -1.0455 -2.3010 -2.2027 -0.8252 3.1522 5.5492 2.3288 -2.6425 -0.8729 1.2930 -1.6678 -0.3561 3.2312 -4.0254 -4.6057 1.7902 -1.8440 -3.1848 2.3960 0.2926 -1.2100 3.2948 3.1360 0.2533 2.1440 1.9654 2.0492 -0.3203 1.0909 4.5637 -1.3173 -0.3264 -3.3974 3.6185 -3.8168 -2.8526 1.0810 6.1317 -1.8460 1.3807 6.2770 -0.4329 1.5047 5.0471 -2.5191 -7.1961 1.2121 3.3294 -6.5251 1.7468 2.2944 2.9814 -7.7292 -5.4901 1.6716 -7.7754 -5.7767 2.0796 5.3235 0.2080 2.2663 4.0211 -1.8309 3.5562 -6.4728 -5.0725 -6.5023 0.9150 4.5683 -5.1098 2.0390 2.4203 -4.5147 0.8704 5.9364 -3.2106 1.1419 6.0659 1.3511 -5.5990 -5.2845 0.8116 -6.7060 -5.6918 -3.1185 2.0546 3.7279 2.0132 0.3092 4.4880 2.9200 0.6251 0.1683 2.0694 -3.0490 -2.3074 2.4090 1.9708 0.6337 0.8421 -0.8387 -2.5613 1.0061 1.3607 4.0609 1.1543 -0.4736 -1.1840 0.9483 1.4868 2.5523 -0.5990 -1.2614 -2.6770 -1.1317 2.0894 5.0355 2.7731 -5.3990 -4.9073 2.5278 4.1469 -0.5173 -5.1870 1.1766 4.6966 -2.5804 1.7595 4.8682 -4.4557 1.7736 3.5672 -2.6467 -0.5326 -3.9377
2.2863 0.5298 5.4895 1.3885 -1.1467 3.9031 -0.9479 2.4351 -5.5803 -2.1313 2.3946 -3.4366 -2.5881 0.6671 -5.1446 4.5175 0.4217 -0.1033 -0.0448 1.0490 1.3554 -1.5870 -0.4892 -2.3448 -0.7404 3.1390 5.1816 1.0489 -3.0053 -0.8280 0.8704 -1.5745 -0.3703 0.9084 -4.9812 -4.1242 0.7638 -2.3166 -3.1522 2.6318 -0.3013 -1.3685 3.3189 2.8896 -0.3102 2.1148 1.8692 1.5404 -0.4011 1.1305 4.0280 -0.4456 0.7151 -3.9800 0.2215 -4.9890 -2.4482 1.1408 5.9964 -2.2930 1.8263 4.9652 -3.0508 1.1657 5.9734 -0.9486 -7.1113 0.0152 4.9542 -6.3965 -0.5347 5.9509 4.2872 -6.7355 -4.3643 3.8540 -7.9942 -4.5333 2.4826 3.9807 -2.4102 1.8884 4.9214 -0.2563 3.3121 -5.6799 -4.2250 -6.4932 0.9810 4.0656 -5.0012 -0.1802 6.1251 -4.5978 2.2757 3.3171 -3.2995 2.5771 3.4392 1.6799 -7.3996 -4.4658 2.5325 -8.3698 -4.5874 -3.0834 1.0404 5.4128 1.9022 0.2656 4.0536 3.1031 0.3604 -0.0890 0.2245 -3.2225 -2.0716 2.4731 1.7211 0.1492 0.7670 -0.8640 -2.7100 0.9458 1.3296 3.5499 1.2020 -0.5580 -1.3572 0.9225 1.3764 2.0367 -0.5640 -0.2106 -2.9609 -1.1287 2.1326 4.6140 2.0049 -5.9689 -4.2354 2.5033 3.9508 -0.9569 -5.1989 1.3217 4.2180 -2.5972 1.8616 4.5374 -4.4129 0.7057 5.2992 -1.5181 1.5288 -4.5139
2.8339 0.9963 5.6464 2.4845 -0.6962 3.8701 -1.4201 0.3122 -5.7217 -0.5505 2.5970 -5.5281 -2.1668 1.7812 -3.8806 4.4030 1.8610 -0.3273 0.1446 0.9937 1.6956 -0.9367 -0.6035 -2.5372 -0.9343 2.6763 5.5129 3.3594 -2.2975 -1.6355 2.6204 -1.3260 -0.7486 1.8426 -4.9065 -4.4217 1.3667 -2.2051 -3.1334 2.6047 0.9012 -1.5668 2.5766 3.8998 -0.0502 2.0029 2.3763 1.7473 0.0405 0.8662 4.3960 0.1230 0.9204 -3.9350 3.2481 -4.1504 -3.5722 -0.6006 6.1285 -1.8462 0.2983 5.3260 -2.6558 -0.4443 6.1775 -0.5112 -6.6811 -0.6751 3.2720 -6.1952 0.0662 2.2614 1.2921 -8.5733 -3.5204 0.1522 -8.4355 -2.8265 1.2882 4.6277 -2.0722 0.6260 5.4271 0.1204 1.9236 -7.3914 -4.0589 -5.9012 -0.8517 4.4826 -4.8949 0.6973 2.3848 -3.9252 -0.4720 5.8162 -2.7280 0.1127 5.9432 0.1480 -6.1903 -3.0272 -0.4599 -7.2347 -2.5562 -2.9330 1.1410 3.6610 2.4918 0.7789 4.1925 3.0626 1.4172 -0.2197 2.3478 -3.0982 -2.4123 2.1457 2.4961 0.3162 1.4555 -0.7197 -2.8190 1.2062 1.4929 3.8185 1.8303 -0.3318 -1.4599 1.0362 1.5675 2.3144 0.0760 -0.1513 -3.0648 -0.9808 1.6019 4.9378 1.4202 -6.1788 -3.7935 1.4481 4.6706 -0.6288 -4.6888 -0.2774 4.6071 -2.3060 0.9302 4.7740 -4.1623 0.5434 3.5043 -0.9897 1.3820 -4.7436
1.9089 0.4447 5.5483 1.6331 -0.9696 3.5370 -2.3883 0.1129 -5.1415 -1.6936 2.4212 -4.7168 -2.2063 0.9545 -2.8262 4.7778 1.2940 -0.1134 0.0801 1.4123 1.2169 -0.3710 -1.5583 -3.3728 -1.3239 2.9822 4.8089 2.7357 -2.2795 -1.3261 1.8308 -1.1381 -0.9086 2.2938 -5.4163 -2.2809 2.5279 -1.5992 -3.6626 3.0441 0.7990 -1.6662 3.3370 3.6341 0.1283 2.2384 2.1108 1.6741 -0.4944 1.0404 3.8017 -0.2036 0.6078 -4.1899 3.2692 -4.1850 -3.1816 0.6594 6.9650 -0.0991 1.4112 6.6915 1.1119 0.7975 6.1668 -1.1726 -7.0534 -1.0806 3.7630 -6.3290 -1.6500 4.7419 -0.2593 -7.2175 -4.4726 0.4493 -8.3260 -4.7362 2.2487 5.6403 1.1622 1.7040 5.0342 -1.1222 0.3359 -6.1984 -3.6408 -6.5163 0.0511 3.0313 -5.0106 -1.1377 5.0654 -4.7531 1.6323 2.5489 -3.5206 2.0870 2.8085 2.2196 -7.6502 -3.5138 1.7079 -8.5891 -4.2483 -3.2531 0.4229 4.6686 1.8687 0.4365 4.0385 3.3776 1.1211 -0.2265 2.3123 -2.7422 -2.6971 2.6095 2.3169 0.2947 1.7289 -0.3794 -3.2258 0.8607 1.4440 3.5134 1.8362 0.0023 -1.8196 0.9874 1.6337 2.0144 0.2745 -0.5357 -3.5811 -1.4544 1.9186 4.2277 1.5914 -6.3426 -3.1968 2.3892 4.7717 0.0049 -5.2893 0.5316 3.3148 -2.8304 1.4041 3.9356 -4.4983 -0.0923 4.3883 -1.5976 1.0026 -4.2097
2.4528 1.1740 5.6402 1.7958 -0.6364 4.0800 -0.2709 -1.2757 -6.4234 2.1565 -1.0735 -6.6900 0.8266 0.9292 -6.2183 4.1352 0.6828 -0.3820 -0.2433 1.1557 1.6839 -0.6154 0.3310 -3.5092 -0.8709 3.5597 5.1749 0.7695 -3.2475 -0.4305 1.0592 -1.7974 -0.0841 -0.2874 -4.5997 -3.6306 -0.8118 -2.2928 -2.1345 2.1823 -0.1911 -1.4137 2.7230 3.0377 -0.4982 1.9065 2.0046 1.5296 -0.2912 1.4439 4.3580 1.1715 -0.7727 -4.5165 -0.5984 -5.0488 -1.9042 0.0366 5.5431 -2.6863 0.8267 4.5272 -3.3579 0.1302 5.7006 -1.3539 -6.6954 -0.3765 6.0976 -5.7870 -0.7741 7.0051 3.3973 -4.5222 -4.6008 3.4465 -5.6752 -5.2847 1.6537 3.7395 -2.6484 1.0316 4.8589 -0.5877 2.1507 -4.1352 -3.9864 -6.3192 0.5590 5.0547 -4.4344 -0.2535 6.9529 -4.7006 1.9531 3.9280 -3.4462 2.4141 3.8517 1.2880 -6.1714 -4.8633 2.3896 -6.5407 -5.4394 -2.8042 1.1408 5.9186 2.0830 0.8404 4.2156 2.7414 0.5140 -0.1968 -0.5626 -3.4045 -1.1342 2.0443 1.8264 0.1036 0.4641 -1.5141 -2.3920 0.9646 1.7332 3.7082 0.8946 -0.8320 -1.1735 0.7806 1.5816 2.2106 0.2468 -0.5401 -3.5147 -1.1303 2.4223 4.8213 1.0880 -4.9476 -4.0489 1.7504 3.9057 -1.2085 -5.0632 1.0414 4.9872 -2.5390 1.9302 4.9268 -4.0751 0.6217 5.9943 0.9592 -0.5487 -5.9309
2.0225 -0.7347 5.3147 0.6578 -1.8673 3.5801 -2.9765 0.8208 -5.6264 -2.8225 2.9969 -4.5221 -3.8956 1.1281 -3.3536 4.0273 -0.1273 -0.3284 -0.1492 1.0976 1.4744 -1.7813 -1.1042 -3.3045 -0.6589 2.4083 5.6206 1.3817 -2.5181 -1.9055 0.5847 -1.4289 -1.2184 1.4977 -5.2540 -3.9258 1.0854 -1.2667 -4.0447 2.1500 0.3337 -1.7174 3.6500 2.5225 0.3339 2.1292 1.3453 1.8145 -0.5882 0.6431 4.0898 -1.4833 1.1627 -3.7275 2.2975 -3.6451 -4.1426 2.4151 6.3930 -1.0042 2.7678 5.3537 -1.9540 2.4674 6.1456 0.3167 -7.4517 0.9919 4.0519 -6.9815 -0.0538 4.7531 3.9510 -8.0295 -4.8377 4.2682 -8.4341 -3.5986 3.1551 4.1427 -1.5155 2.8861 4.8396 0.7923 3.0041 -6.9520 -4.9957 -6.5490 2.0466 3.6297 -5.5728 -0.1241 5.0932 -4.3484 3.0307 3.4697 -3.0389 2.9487 3.7353 2.9263 -6.9156 -2.6132 3.7555 -7.8978 -2.4408 -3.3808 0.8065 5.0002 1.4985 -0.6541 3.9017 2.6698 0.2700 -0.3000 1.0188 -2.6231 -3.3703 2.4706 1.5793 0.4327 0.4329 -0.1507 -3.2491 0.7914 0.6696 3.6698 0.7674 -0.1161 -1.8303 0.8366 1.0477 2.2042 -1.0624 -0.1171 -3.4200 -1.1659 1.6592 4.8032 2.5029 -6.3401 -3.9156 3.2054 3.8742 -0.0882 -5.2357 1.9874 3.9269 -2.6359 1.7578 4.5318 -4.7238 0.8465 4.7035 -2.7727 1.5042 -4.2942
3.0187 -0.1404 4.9864 2.0707 -1.6563 3.2681 -0.9502 2.4829 -6.1567 -1.6731 3.0227 -3.8790 -2.8269 1.2588 -5.1658 4.2847 0.8497 -1.0071 0.1271 0.5825 1.2882 -1.6143 0.2406 -2.4209 -0.2647 2.3291 5.2878 0.5250 -2.8361 -0.9979 1.6547 -1.8950 -1.3562 0.7296 -5.0042 -3.6179 -0.0961 -2.2282 -3.3770 2.2207 0.2849 -2.0589 2.9445 3.1813 -0.4471 2.1602 1.6988 1.3083 0.1297 0.4143 4.0012 -0.5410 0.9200 -4.3730 -0.6580 -4.7661 -2.4769 0.1969 6.0836 -1.9705 0.9684 5.2432 -2.8678 0.3408 5.9601 -0.6389 -6.8465 0.3151 3.8752 -6.3941 1.0992 2.8812 4.1213 -5.8061 -2.0804 4.0038 -7.1406 -2.0063 1.8186 4.3282 -2.3697 1.2695 4.9839 -0.0993 3.0148 -5.0412 -2.6031 -5.9339 -0.1553 4.9006 -4.9947 1.4790 2.8352 -3.7434 -0.2804 5.9053 -2.4529 0.0718 5.8784 1.9092 -7.1369 -2.8396 2.8889 -7.8525 -2.3809 -2.8092 1.4049 3.7798 2.4700 -0.2347 3.5842 2.9044 0.6585 -0.7619 -0.4684 -2.9977 -2.1277 2.2617 1.8706 -0.1209 0.4345 -0.8292 -3.1097 1.3687 0.7833 3.3609 1.1090 -0.6294 -1.8290 1.1206 0.9898 1.8825 -0.6932 0.1622 -3.2271 -0.6199 1.3179 4.7064 1.8774 -5.6565 -2.9503 1.9643 4.1865 -0.9310 -4.6326 0.1921 4.8714 -2.0668 0.9396 4.7333 -4.1399 1.0541 3.7852 -1.4884 1.8974 -4.8711
2.2624 -2.0500 3.4907 0.9860 -2.0506 1.3665 -0.9480 1.2438 -7.1555 0.9177 2.8146 -7.3814 -0.7303 3.1577 -5.6064 4.2520 1.8005 -1.0673 -0.3432 1.3901 1.3814 -0.6459 0.7781 -3.8096 0.0849 0.5750 5.5711 2.2501 -2.7589 -2.5901 2.7752 -1.3650 -2.3280 0.0493 -5.1057 -1.9870 0.7215 -1.8146 -4.2861 2.5383 0.9585 -2.4976 2.1580 3.4173 -0.2927 1.9546 1.4457 1.1153 -0.2205 -0.3012 3.4287 0.8529 1.2976 -5.5159 0.4064 -4.4202 -3.6262 -1.4870 5.5417 -0.9944 -0.6740 5.0716 -2.1010 -1.1156 5.2846 0.2722 -6.7369 1.6026 5.7407 -5.9954 2.7088 5.9220 2.5888 -7.8545 -1.2110 3.3851 -7.1654 -0.3798 0.4598 4.3880 -1.8631 0.1187 4.5668 0.5316 1.4308 -7.1971 -1.7696 -6.1021 0.3662 5.3258 -4.5645 2.6675 5.6848 -4.1585 -0.9355 4.7344 -2.8301 -0.9955 4.5837 2.1353 -5.2959 -0.5249 3.1794 -5.8602 -0.0020 -2.6082 1.4563 5.0596 1.7833 -1.2061 2.3339 2.9904 1.1585 -1.0656 0.8293 -2.7501 -3.1018 1.9685 1.9172 -0.2494 1.4048 -0.4718 -4.0420 1.0484 0.0281 2.8222 1.8214 -0.3029 -2.6459 0.7805 1.0060 1.6961 0.4057 0.5925 -4.4128 -0.6137 0.2123 4.6384 1.1866 -5.9114 -1.4863 0.8670 4.1212 -0.4940 -4.7731 0.3134 5.1132 -2.1084 0.2946 4.7737 -3.9638 1.5285 5.2896 0.0263 2.1073 -6.3880
3.0788 1.3255 5.1082 2.8802 -0.5411 3.4907 -0.2866 2.0306 -6.4791 1.9602 1.2978 -7.1342 1.6878 2.7249 -5.1673 4.3025 2.2036 -1.0692 0.3416 0.7046 1.2473 -0.5286 1.0365 -3.4539 -0.6686 2.3824 5.2825 1.1298 -2.2334 -0.5878 2.1848 -1.2530 -1.0652 -0.6597 -4.6054 -2.6972 0.1133 -1.8531 -2.8696 2.6423 0.8233 -2.0829 2.1849 3.9097 -0.6686 1.9671 2.3544 1.1817 0.2794 0.7228 3.9329 0.9278 0.4001 -5.1528 -1.0667 -3.7251 -1.1686 -1.4615 5.6247 -2.1111 -0.4728 5.0880 -3.0282 -1.2351 5.5991 -0.7855 -6.4236 -1.4499 4.5247 -6.4666 -0.3132 3.8083 2.4398 -6.8168 -2.6184 1.8733 -7.9516 -2.1808 0.6670 4.5566 -2.5520 -0.0041 5.0250 -0.2714 1.6103 -5.6477 -2.7868 -5.1914 -1.8486 5.1777 -5.2756 0.5041 3.6709 -2.8716 -1.5022 5.7379 -1.7773 -0.7379 5.6483 -0.1755 -7.0249 -2.0211 0.5432 -8.0931 -1.8625 -2.9712 0.8849 4.1488 2.7186 0.9470 3.6922 3.0823 1.5323 -0.8176 -0.1341 -2.1966 -1.4176 2.0211 2.4614 -0.2581 1.0983 -0.7073 -3.0708 1.3461 1.4753 3.3152 1.5898 -0.1480 -1.8116 1.1442 1.4410 1.8137 0.4024 0.3582 -3.8744 -0.6944 1.3153 4.6926 0.3147 -5.6910 -2.4521 0.8986 4.4999 -1.1197 -4.0807 -1.0950 5.0645 -1.9253 0.4694 4.7902 -4.1225 0.1389 4.2633 1.0632 1.5975 -5.9555
2.5448 1.4608 5.1816 2.3846 -0.2520 3.4043 1.5908 1.6767 -7.2659 3.9396 1.2550 -6.7080 2.6181 2.7603 -5.2985 4.0761 2.4846 -0.9436 -0.1006 1.2184 1.2025 0.0765 0.9171 -4.5323 -1.3376 2.9491 4.8064 1.1086 -2.0267 -0.8232 2.1039 -0.9146 -1.0894 1.0678 -5.2783 -1.4072 0.3768 -1.7077 -3.2290 2.4893 1.1716 -2.1317 1.8660 4.1841 -0.7424 1.7022 2.6644 1.1627 -0.1667 1.1517 3.8730 2.1887 0.3465 -5.3258 1.6367 -4.0417 -2.6025 -1.8855 6.2583 -0.7441 -0.9050 6.4856 0.3019 -1.6193 5.3943 -1.7399 -5.7462 -2.5636 5.4658 -4.7261 -2.7650 6.3178 -1.3353 -7.7637 -3.0198 -0.4482 -8.7034 -3.3807 0.2660 5.8237 0.2826 -0.3529 4.6828 -1.7648 -0.8594 -6.5891 -2.3289 -5.6911 -1.4709 4.5127 -3.5721 -1.8871 6.2874 -4.5825 0.4253 3.5091 -3.5113 1.2265 3.4572 1.3003 -7.5802 -2.5056 0.9015 -8.6490 -3.1235 -2.4353 -0.0137 5.3569 2.2792 1.2235 3.7131 2.8326 1.8225 -0.8097 0.5696 -2.6788 -2.0808 1.7531 2.7445 -0.2792 1.4588 -0.6407 -3.3049 0.9590 1.8452 3.2920 1.5467 0.0641 -2.0227 0.7814 1.8440 1.7858 1.1354 0.3082 -4.4288 -1.2528 1.8072 4.3881 0.4499 -6.4334 -2.0962 0.5455 4.8715 -0.7812 -4.6237 -0.6501 4.4713 -2.4526 0.9155 4.4548 -3.5110 -0.8683 5.4088 2.5655 1.4951 -6.1254
1.6850 2.0670 5.2294 1.6057 -0.0523 3.9464 3.0060 -1.4088 -6.8402 2.6716 0.8568 -5.9645 0.7669 -0.4172 -6.8861 4.0642 1.2963 -0.2649 -0.4560 0.9389 1.1048 0.2396 0.4142 -3.9317 -2.3907 3.1941 3.4425 -0.1722 -2.2204 -0.0635 1.1761 -1.5523 -0.2521 -0.3172 -5.1615 -2.9671 -0.3753 -2.1812 -2.5559 2.4670 -0.0059 -1.4601 2.3584 3.3483 -0.9316 1.3304 2.4150 1.0652 -0.9206 1.3930 3.7194 1.8061 -1.0873 -4.7794 0.2279 -4.5935 -1.3327 -0.3161 5.1714 -3.7286 -0.1819 5.6856 -2.3776 0.4118 4.1112 -4.1228 -5.6277 -0.1091 8.6944 -4.8893 0.9194 9.1464 2.6615 -5.0060 -5.3502 3.0650 -6.2819 -5.2532 0.6591 5.0916 -1.5124 1.3303 3.4778 -3.1935 1.4936 -4.5909 -4.6115 -5.5329 -0.5167 7.3053 -3.9866 1.6147 8.2488 -4.6342 -0.2865 5.0772 -3.8098 0.3517 4.2383 1.4055 -6.8411 -3.8327 2.4441 -7.2468 -4.4955 -3.0245 1.8645 6.0835 1.5334 1.4539 3.8587 2.7010 0.9167 -0.2818 -0.6103 -2.9865 -1.2948 1.7720 2.1159 -0.2770 0.9669 -1.4652 -2.5988 0.2842 1.9702 3.1694 1.1575 -0.6474 -1.3990 0.3266 1.6895 1.6804 0.9459 -0.5823 -3.8219 -2.0619 2.1233 3.9246 0.8607 -5.4604 -3.8139 1.4279 3.9315 -1.9310 -4.7034 0.1243 6.4593 -3.0044 1.4372 4.8612 -3.8839 1.2411 6.9588 2.0473 -0.5141 -6.0881
1.0537 1.3342 5.5112 1.1939 -0.5178 3.8682 -0.1394 0.4065 -6.4011 0.1871 2.6767 -5.5375 -1.5974 1.2828 -4.6097 4.5724 1.2444 0.3177 -0.0909 1.0460 0.8808 -0.2162 -1.2235 -3.4953 -2.2723 3.2832 3.4064 2.4302 -3.0137 -1.3145 2.3859 -1.6232 -0.7314 2.4424 -4.9831 -4.2517 2.5521 -2.1700 -3.5847 3.1602 0.4932 -1.4436 3.0876 3.5512 -0.1468 1.7754 2.2876 1.4596 -1.1254 1.2438 3.3377 0.7493 0.7880 -4.1601 3.7475 -4.6393 -3.0469 0.9383 5.9240 -2.9847 2.0302 5.0642 -3.4040 0.5891 5.9871 -1.6875 -6.4146 -1.2748 6.9371 -5.3542 -1.0069 7.7186 0.2897 -7.9070 -3.0753 -0.8206 -7.2205 -2.7660 2.6880 4.3196 -2.4976 1.3069 5.1942 -0.7057 1.4329 -7.1845 -3.5810 -6.4527 -0.7859 5.5717 -4.2541 -0.2175 7.1999 -5.4796 0.3985 3.7072 -4.4507 1.0946 3.2084 0.0885 -5.2341 -3.3204 -0.9614 -5.8582 -2.8849 -3.2530 0.9953 5.4132 1.2186 0.9804 4.0544 3.2187 1.0124 -0.0251 3.2920 -2.9671 -2.5453 2.3700 2.2529 0.1482 2.1176 -0.8111 -3.0640 0.2244 1.7307 3.1858 2.1238 -0.5150 -1.6374 0.5903 1.6277 1.7206 0.7491 -0.4722 -3.5929 -2.1776 2.0825 3.5939 1.3932 -5.8489 -3.6716 2.3041 4.3805 -1.0978 -5.4324 -0.0599 5.0754 -3.3423 1.3423 4.1692 -4.2800 0.2462 5.9363 -0.1882 1.2636 -5.1568
1.1124 0.0487 5.5271 0.0892 -1.3735 3.7693 -3.2720 -1.0409 -5.2793 -3.0878 1.2862 -4.5299 -4.0790 -0.3825 -3.0383 3.8942 -0.9185 -0.0727 -0.3299 1.0767 1.0806 -1.9779 -2.5461 -2.6907 -0.9699 3.6622 3.9913 1.0475 -3.5268 -0.8474 0.3320 -2.2345 -0.5134 1.8900 -5.3205 -4.3790 0.8757 -2.8970 -3.2546 1.9894 -0.7835 -1.4872 3.6296 1.8082 0.0109 1.9302 1.1200 1.5921 -1.0181 1.3463 3.6616 -1.6887 -0.4012 -3.5394 1.8639 -5.3682 -2.5668 2.8230 5.2127 -2.4461 3.1905 3.9378 -3.0353 2.7142 5.3337 -1.1110 -7.5143 2.8164 6.0794 -7.4279 3.3823 4.8631 5.2017 -3.9089 -5.6478 5.9002 -5.0534 -5.7015 3.4282 2.8754 -2.2461 2.9744 4.1888 -0.2571 3.8253 -3.9556 -5.2150 -6.3354 2.2383 6.6960 -6.1571 3.4095 4.1640 -3.9759 1.7367 6.7186 -2.7837 1.8298 6.1184 4.1637 -6.3061 -4.9984 5.4032 -6.2941 -5.3787 -3.8271 2.9162 4.1086 0.9151 -0.1405 4.0441 2.5452 -0.4920 -0.1131 0.7091 -4.0116 -2.2402 2.3918 0.9713 0.2376 0.2353 -1.5914 -2.8238 0.3815 1.1228 3.3975 0.5811 -1.1630 -1.4725 0.5843 1.0951 1.8998 -1.2620 -1.5969 -2.9937 -1.4787 2.5595 4.1027 3.2771 -5.1238 -4.8578 3.3091 3.0064 -0.8041 -5.1458 2.2720 6.0651 -2.8137 2.4488 4.7657 -5.0540 2.8835 4.7298 -3.0093 -0.1550 -4.0828
2.7130 2.2943 5.4091 2.9294 0.3264 3.9180 0.7998 -1.6924 -6.2141 1.9305 0.4293 -6.6825 -0.2181 0.4454 -5.5129 4.3810 2.6337 -0.6592 0.3256 0.9740 1.4760 0.1538 -1.0946 -2.9459 -1.1759 2.8267 5.2157 2.6873 -2.1773 0.4493 3.3817 -0.9922 -0.1789 0.2719 -5.0759 -1.0323 2.4081 -2.7725 -2.0178 3.0596 0.8794 -1.5828 1.9954 3.9963 -0.7592 1.8073 2.7450 1.3101 0.1346 1.2213 4.1340 1.8072 -0.3814 -4.4197 0.4320 -3.4462 -0.2560 -1.5709 4.7052 -3.0109 -0.4204 4.0624 -3.6198 -1.5325 5.0736 -1.7179 -6.3916 -1.6414 4.4060 -6.5670 -0.4724 3.7657 -2.0001 -4.6755 -4.0781 -1.0567 -4.6934 -5.0318 0.6878 3.8354 -2.8924 -0.3346 4.8349 -0.9328 -1.5976 -4.8326 -2.7005 -5.1060 -1.9554 5.0000 -5.4661 0.4663 3.6529 -2.8252 -1.4005 5.5527 -1.8294 -0.5077 5.5216 0.6192 -4.9977 -3.5575 0.2885 -4.8595 -4.8036 -3.2041 1.0578 4.1211 2.5256 1.7797 4.0025 3.2529 1.8175 -0.4100 2.1930 -3.1763 -0.5726 2.0094 2.6288 -0.1132 2.4815 -1.2870 -2.3335 1.1218 2.0588 3.4950 2.4923 -0.4002 -1.1725 1.0261 1.8365 1.9987 1.3322 -0.9222 -3.2393 -0.9969 1.7270 4.7190 -0.2998 -4.9508 -2.3923 0.7269 4.2284 -1.4936 -4.0808 -1.0854 4.9163 -2.1166 0.7310 4.7452 -4.2668 0.1856 4.1980 1.0818 -0.3098 -5.6734
-3.2615 -1.0334 1.3346 -2.2251 -0.4557 -0.8420 -1.0870 -0.1991 -6.4526 -2.0293 1.6294 -5.1175 -2.6807 -0.6771 -4.6266 3.9161 0.0639 0.7919 -0.4769 2.5934 -0.0529 -0.1938 -2.1676 -3.8798 -4.1773 3.9024 1.0942 2.5266 -2.8551 -1.4500 1.3208 -2.0153 -1.0873 4.0999 -4.5267 -4.6779 2.6758 -1.5557 -3.5824 2.4805 0.0958 -1.0735 2.4929 1.8125 2.2873 0.4559 0.9570 1.2982 -2.9974 1.9355 0.7322 -0.4253 0.1334 -4.1312 4.4040 -3.5604 -3.1828 1.6076 5.9477 2.9539 2.6918 5.5541 2.0721 0.8824 5.0108 3.5894 -4.0407 1.3307 7.6427 -4.9345 0.6129 6.9403 4.3530 -8.2623 -3.9314 3.0630 -8.5859 -4.1089 2.9646 4.2512 1.8776 1.1793 3.6051 3.3852 4.7519 -6.8856 -4.1013 -3.1735 2.2739 6.9626 -5.0349 0.7842 5.5032 -2.3865 3.3884 4.9739 -2.4696 3.5526 3.6489 2.4515 -6.4609 -4.5479 2.0669 -7.6941 -4.4293 -4.3117 1.8538 3.4999 -2.0969 -0.3520 0.6592 2.5408 0.0814 0.4400 2.7257 -2.9304 -2.9465 1.8353 1.2948 1.0206 1.5352 -0.6897 -3.0781 -1.9208 1.0689 1.1626 1.3670 -0.6623 -1.6293 -0.5924 1.6410 0.7124 0.2217 -1.0222 -3.7360 -3.5768 2.9163 1.4963 3.8315 -5.9473 -4.3592 2.1648 3.2391 2.5461 -3.2563 2.4421 5.6287 -3.4882 2.7046 2.9749 -4.2376 1.6589 4.8605 -1.5318 0.2032 -5.0652
2.7372 1.3777 5.4470 2.8344 -0.7245 4.1357 -1.3413 2.0727 -6.3898 0.8415 3.1917 -6.4304 -0.7478 3.7119 -4.6462 4.3379 1.2273 -1.2564 0.7936 0.0294 1.3163 -1.2262 1.2052 -3.0923 -0.9820 2.4682 4.5924 1.3656 -2.8133 -2.4431 1.9626 -1.5467 -1.8743 -0.7809 -5.2282 -1.6724 -0.5362 -1.5556 -3.3889 2.2495 0.7365 -2.2984 2.9051 3.4085 -0.3722 2.4160 1.6805 1.2535 0.2026 0.5789 3.8849 0.3760 1.5388 -4.7481 -0.7776 -4.2462 -3.1960 -0.0997 6.3664 -1.0855 0.5484 5.6791 -2.1871 0.2414 6.0783 0.1829 -6.5285 -1.5793 3.5395 -6.3832 -0.6516 2.5775 1.7699 -8.0598 -1.9370 2.7543 -7.5137 -1.2067 1.4785 4.7391 -1.9427 1.2575 5.0757 0.4489 0.5435 -7.3196 -2.1141 -5.4675 -1.7935 4.5060 -5.1637 0.1299 2.5003 -3.3065 -1.2738 5.4432 -2.2001 -0.5217 5.4130 1.5711 -5.6472 -0.7655 2.6851 -6.2873 -0.5889 -3.0064 0.6729 3.3561 2.6502 0.7739 4.0664 2.9753 0.9543 -0.9898 -0.1375 -2.7121 -2.4961 2.3252 2.0288 -0.1444 0.5077 -0.4414 -3.4395 1.3866 1.2104 3.3508 1.2392 -0.3108 -2.1738 1.4677 0.8915 1.8723 -0.2334 0.8464 -3.7175 -0.8994 1.2951 4.2686 0.4206 -6.0925 -1.5919 1.8358 4.4176 -0.5721 -4.3349 -1.0663 4.4520 -2.1356 0.4528 4.2894 -4.1726 -0.0587 3.3926 -0.2190 2.6044 -5.5284
1.0048 -1.2067 5.0216 -0.2012 -1.9392 2.9826 -2.7651 2.0519 -5.9946 -3.7820 1.6545 -3.8005 -3.8248 -0.1064 -5.5332 3.5787 -1.2279 -0.5530 -0.2844 1.1017 1.0494 -2.4242 -1.1210 -2.9668 -0.4729 2.9631 4.5597 0.4996 -3.2688 -2.0164 -0.0326 -2.0274 -1.3323 2.5750 -3.9907 -4.3313 0.3195 -2.0448 -4.1918 1.7697 -0.5663 -1.9502 3.7379 1.4645 -0.0731 1.9751 0.7773 1.4442 -0.8752 0.8347 3.6705 -1.7236 0.5274 -4.4509 0.9091 -4.7027 -4.2644 3.3883 5.3384 -1.8530 3.5669 4.1540 -2.6734 3.3449 5.2311 -0.5130 -7.4348 2.2096 5.4308 -7.2010 2.5096 4.1414 4.9342 -5.0077 -1.5164 5.4694 -6.1002 -2.0821 3.6807 2.9452 -2.0951 3.4678 3.9267 0.1129 3.9290 -4.2721 -2.2453 -6.3268 1.9096 6.3183 -5.8403 2.5403 3.6395 -3.9717 1.6153 6.7599 -2.7140 1.6227 6.3020 4.2194 -5.9104 -3.9487 5.1302 -6.5886 -3.3219 -3.5013 2.2894 4.0123 0.8028 -0.9621 3.5465 2.3146 -0.5904 -0.5387 0.0404 -3.3358 -3.4537 2.3844 0.7992 0.0609 -0.0696 -0.8061 -3.4072 0.4699 0.4928 3.2735 0.3283 -0.7826 -2.0040 0.6416 0.8205 1.8045 -1.5382 -0.5038 -3.5487 -1.1693 1.9827 4.3583 3.5065 -4.7129 -3.4370 3.6090 2.8269 -0.6486 -5.0588 1.9289 5.8636 -2.5764 1.9805 4.8646 -4.8037 2.2659 4.4541 -3.0055 1.0105 -4.9261
0.4891 -0.9366 5.0026 -0.5600 -1.7099 2.8904 -0.9631 2.6798 -7.0133 -2.5125 2.6196 -5.1147 -2.5306 0.8097 -6.7966 3.2718 -1.4276 -0.2754 -0.3743 1.3653 0.8785 -1.9817 -0.3267 -3.9626 -0.8356 3.1054 4.5839 0.1406 -2.9395 -2.3343 -0.2514 -1.5763 -1.8038 2.5016 -4.1771 -4.0792 0.7150 -1.8342 -4.5052 1.9107 -0.5529 -2.0201 3.7067 1.3133 0.0230 1.7995 0.7940 1.4334 -1.2166 1.1151 3.4103 -0.6434 1.0654 -5.2602 0.7578 -4.5485 -4.4112 3.7093 5.1975 -1.7727 3.8481 4.0003 -2.5819 3.6064 5.0996 -0.4352 -7.1980 0.9536 6.8380 -6.2589 0.2320 7.4741 3.9026 -5.4824 -0.7829 4.3228 -6.6860 -1.2010 3.8611 2.7897 -1.9965 3.6179 3.7928 0.1984 3.2525 -4.6087 -1.7301 -6.8196 1.8474 5.7598 -4.8655 0.3532 7.0892 -5.1756 2.8522 4.3062 -3.8975 2.9479 3.9209 3.5857 -6.3601 -3.3070 4.1768 -7.1669 -2.4808 -3.1915 1.3174 5.6961 0.4111 -0.7344 3.5098 2.1387 -0.6149 -0.5252 0.0160 -2.9983 -3.8385 2.2970 0.7642 0.0809 0.4251 -0.4998 -3.8464 0.1478 0.7180 3.1577 0.5019 -0.4719 -2.3897 0.4583 0.9924 1.7005 -0.8814 0.0732 -4.3275 -1.5314 2.1712 4.2252 3.0337 -5.0201 -2.9854 3.7183 2.6822 -0.5545 -5.5299 1.9663 5.3893 -2.9496 2.1011 4.6943 -4.5016 1.1830 6.0930 -1.6542 1.7700 -6.0238
2.0953 3.3219 5.4433 2.4717 0.9875 4.7051 -2.3901 -0.4694 -2.5543 -1.7370 1.8596 -2.1640 -2.2592 0.4227 -0.2546 4.9667 1.5806 0.0927 0.5473 0.9324 1.5878 -0.3527 -1.9761 -0.4820 -1.6354 3.7094 4.2716 3.5683 -3.2824 -0.7230 3.2446 -2.0829 0.1391 2.6167 -4.9548 -3.8870 1.8557 -2.6525 -2.3311 3.5104 0.0114 -0.9558 3.0323 3.3286 -0.8141 2.1629 2.5724 1.3212 -0.2121 1.8790 3.9699 -0.2311 0.0806 -1.5673 2.5630 -5.3734 -2.1253 0.2500 4.3147 -3.9098 1.2750 3.3085 -4.1228 0.1489 4.9338 -2.7200 -6.6572 -0.9894 3.2753 -6.5165 -0.1531 2.2325 -0.3430 -6.6494 -5.6145 -1.0820 -5.5555 -5.8545 2.1312 2.9992 -3.1328 1.0739 4.6026 -1.6510 0.9327 -6.4958 -4.9561 -5.6744 -0.9888 4.3425 -5.3785 0.7446 2.1700 -3.6693 -0.1485 5.3875 -2.6421 0.7090 5.3639 0.4269 -4.1682 -4.9189 -0.7157 -4.2725 -5.5233 -3.3681 1.5950 3.1289 2.1752 2.3972 4.2552 3.6538 1.0548 0.1303 2.3006 -3.7435 -1.3910 2.5997 2.1396 0.0154 1.6718 -1.3286 -1.6145 0.9401 2.5205 3.3802 2.5560 -0.9870 -0.5158 1.1737 1.8986 2.0154 0.2533 -1.1453 -1.1505 -1.4133 2.5189 4.1269 1.3315 -5.2843 -4.5463 2.0190 3.6653 -1.8459 -4.6183 -0.1536 4.3010 -2.5646 1.5610 4.1447 -4.4580 0.7545 3.1539 -1.6297 0.4514 -1.6285
2.3968 1.5311 5.5624 2.6011 -0.1110 3.7195 0.7456 -0.0104 -6.8110 2.1806 1.9773 -6.7793 -0.0154 2.0638 -5.7056 4.5128 2.6074 -0.3722 0.1834 1.1768 1.3266 -0.0270 0.0618 -3.4909 -1.5042 2.5719 5.0317 2.0772 -1.9928 -0.2572 2.9800 -0.8435 -0.6313 -0.4244 -4.4304 -0.6306 1.8565 -2.0968 -2.8064 3.0126 1.2793 -1.6626 2.3434 4.2955 -0.2761 1.8913 2.7272 1.5190 -0.1301 0.9950 3.9827 1.8090 0.7408 -4.7495 -0.2859 -2.7492 -1.2814 -0.9492 5.9442 -2.4491 0.1347 5.2678 -3.1388 -0.9411 6.0387 -1.1075 -5.5305 -3.2362 4.3114 -4.5649 -3.5363 5.1972 -1.8066 -6.7105 -3.3628 -0.6846 -7.3921 -3.6394 1.1516 4.7365 -2.4371 0.1604 5.4737 -0.3491 -1.7659 -5.6945 -2.3387 -5.4866 -1.9795 3.5872 -3.4881 -2.5961 5.4417 -4.4424 0.1293 3.0444 -3.4313 0.9856 3.2345 0.5385 -6.2615 -2.1203 0.5273 -7.1953 -3.0204 -2.4386 -0.5067 4.9927 2.2978 1.3273 4.0695 3.2697 1.9334 -0.3207 1.5114 -2.7065 -1.4628 2.1374 2.8455 0.1020 2.1960 -0.6120 -2.8373 0.9653 1.8207 3.5322 2.2505 0.0425 -1.5311 0.9517 1.8432 2.0149 1.1806 0.0890 -3.7049 -1.3041 1.5141 4.4601 -0.6104 -5.4083 -1.7257 1.1589 4.8375 -0.9876 -4.4848 -1.1031 3.7950 -2.4434 0.5637 4.2634 -3.4402 -1.4242 4.7801 1.1779 1.1763 -5.9806
2.4680 0.9885 5.0949 2.3110 -0.7763 3.3622 -0.8486 2.0166 -6.0796 0.9878 3.5601 -5.5629 -0.5706 2.8994 -3.7928 4.5623 2.2830 -0.5917 0.3951 0.7885 0.8487 -0.3081 -0.1239 -3.4901 -1.4090 2.3292 4.6029 2.8421 -2.3519 -1.4453 3.4221 -0.9632 -1.6156 1.6925 -5.2227 -1.4273 2.0262 -1.8733 -3.7705 2.9654 1.3068 -2.0636 2.6399 4.2158 -0.3371 1.8993 2.5121 1.2296 -0.1977 0.6633 3.4915 1.0389 1.3035 -4.7443 2.1546 -4.4514 -2.9976 -0.7198 6.8446 -0.6868 -0.0068 6.7085 0.5705 -0.3077 6.1663 -1.7726 -6.0276 -2.9855 3.7535 -5.2321 -3.2703 4.7990 -1.8625 -6.5907 -1.3409 -1.5856 -7.8889 -1.5358 1.0556 5.8881 0.6562 0.8404 5.2823 -1.6819 -0.7728 -5.6446 -1.3234 -5.7516 -1.8253 2.9269 -4.0948 -2.4207 5.0974 -4.4259 0.1072 2.3435 -3.3565 0.8749 2.5866 0.6312 -7.5247 -1.7268 -0.3248 -8.4017 -1.7313 -2.7470 -0.5258 4.5793 2.2579 0.7102 3.6271 3.2444 1.7687 -0.6500 1.8539 -2.7287 -2.5319 2.2164 2.7696 -0.1570 2.0902 -0.3809 -3.4710 0.9958 1.3845 3.1207 2.3966 -0.0373 -2.0824 1.0369 1.5029 1.6127 0.7915 0.2672 -3.8660 -1.3145 1.2794 3.9908 0.4780 -6.0560 -1.5676 1.4767 5.1249 -0.5078 -4.6961 -1.0304 3.1902 -2.5423 0.4553 3.7589 -3.8257 -1.3438 4.3347 0.1576 2.4168 -5.0265
1.1017 2.0545 5.4023 1.8464 0.2337 3.8919 1.5225 0.2121 -7.0391 2.5883 2.3898 -6.6712 0.2739 2.0448 -5.9546 4.5427 2.7012 -0.0587 0.0589 1.1230 0.8132 0.2897 -0.1495 -3.9080 -2.6507 2.6856 3.1764 1.2506 -1.6498 -0.5849 2.3797 -0.6481 -0.5152 -0.0331 -4.7361 -1.3707 2.3556 -1.9496 -2.8338 3.3414 1.2602 -1.5307 2.3264 4.3031 -0.4860 1.5805 2.8057 1.2817 -0.9143 1.1211 3.2930 2.1349 0.9534 -4.7987 1.6704 -4.1336 -1.4347 -0.4772 5.4970 -3.4851 0.7794 4.8680 -3.8492 -0.7875 5.6856 -2.1901 -5.1882 -2.5136 7.2894 -4.2512 -1.8656 8.0030 -0.5459 -7.1128 -4.3067 -0.3280 -8.2707 -3.6645 1.6391 4.4763 -2.8923 0.1447 5.2756 -1.1559 -0.4851 -5.8814 -3.5569 -5.3803 -2.1964 5.8868 -3.4425 -0.8384 7.3749 -4.8081 -0.9801 3.8822 -4.0343 -0.0680 3.2819 -0.0035 -7.2653 -1.6737 -0.0583 -8.3875 -2.3213 -2.8615 0.4317 5.4457 1.3877 1.6701 3.9715 3.3320 1.9835 -0.1998 1.2808 -2.4314 -1.8803 2.1174 2.8727 -0.0514 2.4646 -0.4350 -2.9032 0.2127 1.9948 3.0679 2.2753 0.2733 -1.6394 0.5915 1.8955 1.6054 1.4869 0.1186 -3.9091 -2.1801 1.6064 3.4926 -0.1869 -5.9116 -2.2521 1.3078 4.6906 -1.4939 -4.6255 -1.2556 5.2871 -3.0544 0.6045 4.1771 -3.6130 -0.5337 6.0742 1.6261 1.3812 -6.0870
1.9473 -0.7196 4.6000 0.3125 -1.6749 2.9954 -2.5273 -4.7748 -0.9607 -3.3963 -2.8985 0.3567 -1.7493 -4.4086 1.3554 3.6064 1.4388 -1.8006 -0.5487 1.4200 1.1539 0.6866 -4.3188 -0.4752 -0.4325 2.6426 5.3371 3.7064 -2.3588 -1.4662 2.8285 -1.9208 -0.3144 3.3826 -4.8894 -4.5861 1.6123 -2.7642 -2.7797 1.8274 -0.0699 -1.4878 2.6486 3.3405 -0.1286 1.7586 1.6145 1.2902 -0.7103 0.8827 3.8194 -1.1202 -2.8563 -0.4234 3.9866 -3.3263 -3.9055 -0.0717 6.3268 -1.5353 0.7663 5.5863 -2.4613 0.0090 6.0896 -0.2139 -7.1643 3.6219 3.6924 -6.3835 4.3043 2.8373 1.4198 -4.3258 -7.8077 2.4323 -4.4200 -8.6831 1.6212 4.6566 -1.9996 0.9317 5.0866 0.2863 1.7004 -4.4896 -6.4014 -6.5730 2.6661 4.6097 -4.9490 4.0876 2.8334 -4.6741 1.5064 5.5437 -3.3499 1.3142 5.5634 3.9634 -4.8160 -7.0767 3.7413 -4.6726 -8.3466 -3.0294 2.9868 3.7171 1.2463 -0.5237 3.2796 2.7646 0.8966 -0.7938 2.9810 -3.2983 -2.4025 1.9750 1.9839 -0.0887 0.8289 -2.1940 -1.6095 0.5967 0.8444 3.2123 1.5814 -1.2962 -0.7398 0.5019 1.3124 1.7778 0.1539 -3.2569 -0.7804 -1.1066 1.9199 4.6227 2.9567 -4.7033 -5.9911 1.6940 4.3873 -0.5735 -5.2424 2.4561 4.6174 -2.5865 2.1280 4.5791 -4.3875 3.2060 3.6827 -2.1669 -3.7296 0.0703
1.5622 4.3726 5.5388 2.6266 2.2780 4.7557 1.2155 -1.8346 -6.0760 2.2706 0.3454 -6.4132 -0.0638 0.2389 -5.6881 4.0689 2.1719 0.5195 0.1938 1.2811 2.1090 -0.1438 -1.0120 -2.9981 -2.3721 3.3070 4.6833 0.7870 -2.1229 0.3962 1.7361 -0.9483 0.4300 -0.6531 -3.9475 -2.1107 2.0553 -2.6901 -1.7213 2.7752 0.7447 -0.8824 2.2530 3.9570 -0.6139 1.2890 3.2255 1.4898 -0.3181 2.1929 4.5827 1.7611 -0.3968 -4.1828 0.2987 -4.5832 -0.7085 -0.2929 5.0457 -3.8735 0.7240 4.0215 -4.0333 -0.4568 5.6544 -2.6855 -4.8297 -3.2085 4.4212 -4.6494 -2.7475 3.1712 0.5245 -5.3285 -5.4683 -0.3614 -6.3272 -5.6004 1.5037 3.6786 -2.9925 0.3884 5.2896 -1.5627 0.4701 -4.5089 -4.2820 -4.2805 -2.4800 5.5490 -3.9181 -1.5140 2.9508 -3.0654 -0.6234 6.4952 -2.4260 0.5369 6.3079 -1.3512 -5.8896 -3.6217 -1.3295 -6.6437 -4.6769 -2.7522 0.3728 3.8225 1.7720 3.4578 4.3558 2.7618 1.6653 0.3182 1.4199 -3.1948 -0.4485 1.7404 2.7793 0.1894 2.0232 -1.1896 -1.9604 0.4472 3.0684 3.7267 1.7365 -0.2772 -0.8601 0.6259 2.3990 2.3765 1.0722 -0.8756 -3.0857 -1.6778 2.3046 4.6997 -0.4242 -4.7705 -3.3209 1.3175 4.3275 -1.7054 -3.5977 -1.3346 5.3580 -2.3332 0.9750 4.8894 -3.4135 -0.8229 3.9906 1.2907 -0.4197 -5.5544
2.3081 2.4011 5.7803 2.6115 0.2603 4.5662 -1.3902 0.8209 -5.5661 -1.2098 3.1324 -4.7678 -2.6290 1.5482 -3.5561 4.5657 2.1555 0.1758 0.3934 1.0703 1.5817 -0.8178 -0.7032 -2.6161 -1.9990 2.4405 4.4028 2.6038 -2.0432 -0.9140 1.9718 -0.7835 -0.3693 1.4946 -5.0924 -1.4304 1.9634 -1.4434 -3.1730 2.9636 1.1873 -1.3002 2.8667 4.2955 0.1154 1.8396 2.8702 1.7808 -0.1261 1.0477 4.2473 -0.1958 1.3538 -3.5066 2.3669 -4.0946 -2.6634 0.5245 6.8034 -2.4378 0.6057 7.0566 -1.0105 1.1786 5.7587 -2.9756 -5.0476 -3.3674 1.9380 -4.4763 -2.7162 0.9097 -1.7679 -6.6076 -2.7003 -1.3239 -7.8458 -2.9648 1.3274 6.2402 -0.2219 1.9720 4.8868 -2.1281 -0.8350 -5.6299 -2.1916 -4.7612 -2.9631 3.3016 -3.5858 -1.5994 1.1632 -3.6560 -1.5485 4.9151 -2.8475 -0.5100 5.1598 0.7906 -7.3627 -2.3509 -0.0265 -8.2674 -2.7942 -2.5073 -0.1330 2.7006 2.2360 1.7174 4.4378 3.2042 1.7839 0.0723 1.7878 -2.4885 -2.0986 2.2649 2.9333 0.3986 1.5087 -0.0765 -2.6850 0.8907 1.9620 3.7798 1.8060 0.3103 -1.3133 1.0030 1.8838 2.2692 0.0356 0.1222 -2.9240 -1.4604 1.3606 4.2286 0.4593 -5.9462 -2.0540 2.0234 5.1032 -0.8013 -3.9319 -1.9314 3.5511 -2.3143 0.1651 3.9460 -3.3200 -1.2084 2.4242 -1.3386 1.6912 -4.3313
2.3244 0.2150 4.6987 2.1553 -1.2293 2.6899 0.3027 1.6919 -7.3676 1.8544 3.4321 -6.6048 -0.3569 3.2455 -5.5698 4.5824 1.6934 -0.9381 0.0446 0.8330 0.5242 -0.4806 0.6671 -4.0981 -1.4716 2.2144 3.9309 1.7981 -2.5905 -1.9667 2.7356 -1.4068 -2.0919 -0.9867 -4.3654 -1.7379 0.9902 -1.8096 -4.1920 2.9455 0.9034 -2.4804 2.6990 3.7182 -0.6831 1.9892 2.0275 0.9037 -0.3188 0.3458 3.1263 1.3764 1.5559 -5.1855 0.0059 -4.1517 -3.2395 -0.2447 6.0993 -2.6713 0.8730 5.5274 -3.3999 -0.3740 5.8764 -1.3513 -6.4174 -2.1937 5.8306 -6.8023 -1.2893 4.9133 0.4429 -7.2249 0.3485 1.1143 -6.4988 1.2553 1.7682 4.7523 -2.7624 0.6087 5.0655 -0.6551 -0.2956 -6.5364 -0.6829 -5.0136 -2.3284 6.1714 -5.8131 -0.4580 4.2532 -2.7030 -1.6627 5.9727 -1.7940 -0.8452 5.4285 0.4716 -4.5351 0.3558 1.1467 -5.1251 1.2932 -3.5436 0.2086 3.9691 2.1416 0.1909 3.2011 3.2396 1.2584 -1.0375 0.6049 -2.4888 -2.8940 2.2681 2.2817 -0.4879 1.6524 -0.4527 -3.9590 0.9245 0.9914 2.7773 2.0219 -0.2215 -2.5579 0.9150 1.2474 1.2848 0.7054 0.6318 -4.4083 -1.3118 1.0114 3.7984 -0.2714 -5.1993 -0.7453 1.6275 4.5107 -1.3370 -4.0872 -1.5489 5.5808 -2.3257 0.0829 4.3926 -4.5076 -0.5728 4.5632 0.7896 2.4557 -6.1583
1.9287 3.0201 5.2903 2.4349 1.2127 3.6744 1.9708 -0.9167 -6.3521 3.8425 0.5756 -5.8206 1.5584 1.4473 -5.7662 3.9552 2.3037 0.1792 -0.5301 1.7164 1.3238 0.0754 0.0013 -3.6242 -2.1629 2.9997 4.8923 1.6447 -2.3452 0.3412 1.8808 -0.8497 0.3214 0.9484 -5.1152 -1.6727 0.5165 -2.1974 -1.8759 2.5514 0.8738 -1.1194 2.2072 4.2054 -0.8107 1.0869 3.3573 1.1779 -0.4602 1.6637 4.0013 2.3535 -0.1434 -4.0765 0.0202 -4.4312 -0.2708 -0.2676 5.6463 -3.9905 -0.1998 6.3429 -2.7188 0.4468 4.5232 -4.1825 -4.6006 -3.6386 5.4499 -3.5817 -3.5163 6.3182 -1.6016 -6.9765 -3.8297 -1.7261 -6.0713 -4.8123 0.5733 5.8628 -1.7284 1.2936 4.0118 -3.1193 -0.6759 -6.7105 -2.7542 -4.8798 -2.5743 4.5039 -2.7718 -2.3130 6.3219 -4.4091 -0.4169 3.5262 -3.6449 0.6818 3.4968 -0.1970 -4.6833 -3.9115 -1.0166 -4.8965 -4.8933 -2.2828 -0.1593 5.4320 1.8097 2.5772 3.8513 2.6234 1.8506 0.0343 0.4086 -2.6801 -0.4481 1.6378 2.9925 -0.1065 1.5512 -1.0893 -2.0498 0.3714 2.6617 3.3694 1.5307 -0.1527 -0.9190 0.2511 2.4960 1.8645 1.2114 -0.3529 -3.3265 -1.7120 1.9438 4.4829 0.0127 -5.5617 -2.7328 1.3377 4.6435 -1.9323 -4.1294 -1.4557 4.4896 -2.5705 0.7195 4.5251 -3.0255 -1.3160 5.4527 2.4109 0.2329 -5.4757
1.2511 1.5185 5.2766 1.8228 -0.1005 3.4916 1.2381 -0.2144 -7.0638 3.0304 1.4428 -7.2876 0.8983 2.1056 -6.2885 4.4417 2.5303 -0.2023 -0.1787 1.3256 0.6780 0.5003 0.4358 -3.8279 -2.6151 2.5481 3.3493 3.1750 -2.3141 -0.9746 3.1201 -0.8264 -0.7243 0.8246 -4.8840 -3.1107 2.0329 -2.0293 -3.1474 3.0935 1.2943 -1.7306 2.3539 4.3168 -0.4395 1.5431 2.7588 1.2459 -0.9149 0.9472 3.2021 2.4360 0.6161 -5.1049 2.3213 -4.5361 -2.1597 -0.3295 5.8713 -3.3833 -0.4833 6.2065 -1.9791 0.6632 5.0544 -3.7781 -5.1161 -3.0383 6.9384 -4.1705 -2.4593 7.6985 -1.5802 -7.1773 -1.2393 -2.5497 -6.2839 -0.9899 0.3659 5.6978 -1.0689 1.5885 4.5148 -2.7987 -0.3965 -6.7383 -1.9391 -5.3253 -2.5904 5.5743 -3.3647 -1.3814 7.1578 -4.7864 -1.1805 3.6903 -4.0268 -0.2082 3.1721 -1.4083 -4.5825 -1.9301 -2.4962 -4.9524 -1.3285 -2.8049 0.0637 5.3494 1.4393 1.3297 3.7903 3.1762 1.9145 -0.3508 2.0309 -2.7809 -1.8354 2.0397 2.8785 -0.1005 2.5458 -0.5974 -3.0579 0.2251 1.8149 3.0183 2.4322 -0.0096 -1.7197 0.4921 1.9069 1.5280 1.6908 0.2033 -4.0158 -2.1584 1.4299 3.5134 -0.2465 -5.4465 -2.2591 1.4369 4.8140 -1.4958 -4.5778 -1.5963 5.0567 -3.0259 0.3679 4.1104 -3.5508 -0.9556 5.8939 1.8969 0.9755 -6.4035
2.5482 2.9293 5.2738 3.1814 1.0780 3.7557 1.3480 0.0604 -6.9722 3.7926 -0.1079 -6.9145 2.6804 1.7421 -5.7492 3.9294 3.2169 -0.8204 0.3084 0.9753 1.5085 0.6099 0.1448 -3.7935 -1.4951 2.6634 5.0042 2.5179 -1.9229 0.0761 3.1220 -0.6102 -0.3756 -0.1626 -3.5856 -0.4352 1.8024 -2.2539 -2.2954 2.9339 1.2755 -1.7744 1.3259 4.1149 -0.9703 1.4425 2.9621 1.1588 0.2422 1.3360 4.1746 2.5114 -0.5627 -4.9341 1.4824 -4.3438 -0.5648 -2.4274 4.2445 -3.0107 -1.2331 3.7570 -3.6771 -2.3735 4.6307 -1.7239 -5.0665 -3.2593 4.0197 -5.0534 -2.5537 2.8758 -2.2759 -4.4261 -3.5017 -2.9059 -5.5103 -3.0239 -0.0671 3.6983 -3.0100 -1.1132 4.5778 -1.0052 -1.3455 -3.7308 -2.6450 -4.2079 -2.8714 5.1218 -4.1839 -1.4000 2.7462 -2.5435 -1.4392 6.1206 -1.7587 -0.3591 6.0232 -1.8828 -5.3869 -1.0180 -2.7328 -6.0263 -1.7612 -2.5688 0.0785 3.6869 2.4397 2.3898 3.8676 2.9581 2.2142 -0.5860 2.4343 -2.8946 -1.0789 1.5979 2.8028 -0.2682 2.4383 -0.9079 -2.6056 0.9920 2.3116 3.4177 2.3267 -0.0123 -1.4513 0.8721 1.9770 1.9413 1.7317 -0.3472 -3.8121 -1.0149 1.5999 4.6496 -1.0900 -4.1965 -1.4153 -0.0086 4.1179 -1.6202 -3.3928 -1.8051 5.0124 -1.8530 0.3648 4.7272 -3.3841 -1.0275 3.7634 2.5710 0.2779 -6.1111
2.4938 -0.1773 4.9134 2.2760 -1.1168 2.6303 -1.7082 2.0059 -6.1610 -1.1512 4.0554 -4.9398 -2.8354 2.5329 -4.0274 4.4074 0.6120 -0.2271 0.0198 1.6036 1.1402 -1.4942 -0.0748 -3.4775 -1.1463 1.7197 5.0907 1.2183 -2.1734 -1.6781 0.8307 -0.8218 -1.1190 -0.3505 -4.8848 -2.8021 1.1200 -1.2741 -3.9465 2.6277 0.6071 -1.8174 3.7456 3.2882 -0.0907 2.2159 2.2322 1.4763 -0.1408 0.3330 3.4956 -0.4641 1.9253 -4.0659 0.9452 -3.9686 -3.6805 2.4501 6.9407 -1.9095 2.7178 6.8685 -0.4845 2.5945 5.8464 -2.6779 -6.2927 -2.7113 3.0348 -5.3993 -3.4365 3.7298 1.3289 -7.4666 -0.5442 1.2235 -6.8138 0.6232 3.1025 5.7053 0.0710 3.0253 4.5942 -2.0823 0.7878 -6.8536 -1.7337 -5.9948 -1.3350 2.6846 -4.1479 -2.8349 4.1488 -4.5445 0.5967 2.6814 -3.3751 1.1464 3.0312 0.1287 -5.0707 -0.2962 0.6025 -5.5984 0.7901 -2.6901 -0.9544 4.2240 2.3020 0.1507 3.4520 3.0252 0.8726 -0.3801 0.5639 -2.3366 -3.0270 2.6466 2.2630 0.0964 0.9067 0.1181 -3.3702 1.0914 1.0439 3.2442 1.2101 0.3095 -1.9557 1.0283 1.6264 1.8419 -0.4907 0.6126 -3.6365 -1.1748 0.8761 4.2111 0.2201 -5.6427 -1.6641 3.2518 4.5205 -0.7583 -4.8314 -0.7675 3.0576 -2.4852 0.2624 3.8309 -3.8640 -1.5561 3.8370 -1.5272 2.6004 -4.7833
-0.2422 4.8060 4.6346 1.5811 3.2459 4.0380 4.9373 -1.0297 -5.6879 3.4580 0.9215 -5.6133 2.6062 -1.2619 -6.4023 3.9411 2.5166 -0.0530 -1.1796 2.5321 0.5323 0.9585 -0.2333 -3.9741 -3.3015 2.2338 3.1691 0.5181 -1.7975 0.3850 1.6669 -0.8205 0.2472 -0.2629 -5.3990 -1.2906 0.8595 -2.3557 -1.9988 2.8243 0.7068 -1.1251 1.8469 3.8946 -1.2284 1.0005 3.1758 0.9346 -0.9857 1.9963 3.3973 3.1800 -0.9269 -4.0483 -0.8870 -3.8414 -0.6111 -0.7977 4.1377 -4.5795 -1.0021 4.9676 -3.4057 0.2309 3.2725 -4.6246 -3.7646 -2.9827 7.6628 -4.0917 -3.3402 6.4085 -1.6805 -5.8886 -4.8038 -0.5928 -5.5401 -5.5077 -0.1696 4.8630 -2.3548 1.1380 3.1684 -3.4966 -1.6106 -5.8694 -3.3621 -3.1601 -1.6879 7.9147 -3.8254 -2.4407 5.3025 -2.3514 0.4623 7.1735 -2.1422 1.3196 6.1671 0.6455 -5.1640 -3.6635 0.6115 -5.1665 -4.9597 -2.9898 -0.3589 4.5019 0.4159 4.0476 3.5083 2.7179 1.8035 -0.0864 0.6720 -2.9259 -0.6103 1.5378 2.7218 -0.3229 1.9571 -1.3053 -2.0530 -0.6045 3.2261 2.7519 1.7027 -0.2281 -1.0897 -0.3024 2.9255 1.2997 1.9462 -0.7413 -3.4530 -2.3063 1.7672 3.7006 -0.4864 -5.4717 -2.7530 0.9354 3.9204 -2.4001 -2.9202 -0.8361 6.8989 -2.4940 0.7949 4.8195 -3.2598 -1.2386 5.5241 3.5219 -0.5758 -5.4129
3.0926 0.9836 5.3134 3.1775 -0.4598 3.3003 0.4642 0.6262 -7.0942 1.1997 2.9300 -6.6914 -0.8724 2.1321 -5.6615 4.3636 2.8694 -0.5422 0.4525 0.8345 1.3337 -0.0987 -0.2756 -3.9542 -1.2081 1.8278 4.8724 1.8054 -1.8401 -1.0508 2.5512 -0.5371 -0.9183 1.2385 -4.8690 -1.2992 2.4752 -1.6217 -3.4757 2.8231 1.6332 -1.8715 2.1035 4.3855 -0.0718 1.9378 2.5971 1.5621 0.4164 0.3853 4.0028 1.3040 1.3170 -4.9110 1.0990 -3.8174 -2.7700 -1.5256 5.9466 -1.7116 -0.4167 5.5755 -2.5722 -1.4260 5.7949 -0.3790 -5.3834 -3.2217 2.4166 -5.1023 -2.3587 1.4254 -2.0771 -4.8134 0.5913 -2.6448 -5.8935 0.0330 0.7122 5.0762 -2.0386 -0.2044 5.2649 0.1994 -0.7429 -4.4421 0.1849 -4.6554 -3.1493 3.6695 -4.0760 -1.3499 1.6106 -2.9928 -2.1594 5.1111 -2.0609 -1.2179 5.3017 -0.8446 -6.3467 -1.2460 -2.0422 -6.7045 -0.8998 -2.4388 -0.3067 2.9920 2.8142 0.9063 3.8319 3.1685 2.1136 -0.4786 2.2873 -2.5458 -2.2931 2.0339 2.8913 0.1535 2.2081 -0.1396 -3.2695 1.3924 1.3311 3.5139 2.0576 0.3932 -1.9203 1.1949 1.5271 2.0240 0.9962 0.2664 -4.0678 -0.8415 0.7711 4.3866 -0.1070 -5.1569 -0.7523 0.8164 4.9051 -0.5994 -3.7005 -2.2176 3.8547 -1.8541 -0.3026 4.1476 -3.3986 -1.2679 2.7714 0.5286 1.7300 -6.0635
2.8540 0.1802 4.8499 2.4711 -1.1693 2.8079 1.4369 0.8838 -7.7057 2.4321 2.9970 -6.9572 0.0780 2.5395 -6.4744 4.4723 2.0417 -0.7208 0.1040 0.8632 1.0034 -0.0336 0.1169 -4.7188 -0.9028 1.8558 5.0728 1.4036 -2.1784 -1.4992 2.3968 -1.0338 -1.4785 -0.9802 -4.3913 -2.4221 1.8323 -1.9368 -3.9454 2.8317 1.1897 -2.2191 2.4944 3.9440 -0.3660 1.9788 2.2014 1.2391 0.0529 0.2816 3.6291 1.8635 1.3087 -5.3438 0.6978 -4.2415 -3.0908 -0.7691 6.2701 -1.8612 0.1603 5.6194 -2.7673 -0.6247 6.1303 -0.5314 -5.8307 -3.2065 4.3818 -4.8403 -3.7030 5.1431 -0.8326 -6.3582 0.8486 -0.9244 -5.3300 1.7058 1.1696 4.8771 -2.2784 0.4704 5.3373 -0.0018 -0.8699 -6.0866 -0.5686 -5.6722 -1.9169 3.7354 -3.6150 -2.9475 5.3218 -4.3875 0.0615 3.2168 -3.2487 0.7524 3.3515 -1.0866 -3.7985 0.0607 -1.0604 -4.0117 1.3398 -2.3115 -1.0034 4.8818 2.4951 0.2270 3.3844 3.1532 1.5302 -0.7794 0.8772 -2.4596 -2.8925 2.1478 2.4836 -0.1669 2.1080 -0.4473 -3.7622 1.2105 1.0048 3.1588 1.9637 0.0290 -2.3805 1.0150 1.3192 1.6886 1.1713 0.3374 -4.6466 -0.9481 0.8729 4.3533 -0.9472 -4.8231 -1.0055 1.3226 4.7222 -0.8417 -4.5362 -1.2085 3.8869 -2.2330 0.1138 4.2310 -3.4572 -1.7488 4.7289 1.4472 1.9092 -6.5953
3.1495 0.0315 4.5380 2.8082 -1.1259 2.3717 -1.2120 1.3853 -6.6363 0.4674 3.1700 -6.7081 -1.4073 3.3440 -5.1443 4.3108 1.4219 -0.8580 0.0418 1.0556 0.9861 -1.2216 0.9190 -3.2979 -0.5949 0.9087 5.3014 1.4751 -2.5542 -1.9744 2.0175 -1.2011 -1.5892 -1.0910 -4.6951 -1.5894 0.2078 -1.5660 -3.8060 2.3395 1.0459 -2.1538 3.0590 3.8003 -0.3123 1.9772 2.2914 1.2565 0.2740 -0.1053 3.3822 0.3674 1.7040 -4.8004 -0.3432 -4.1216 -3.1372 0.6820 6.9420 -1.9759 1.3120 5.9539 -2.8329 0.8373 6.8762 -0.6415 -6.5565 -2.0821 3.4343 -6.5882 -0.7394 3.3773 1.2934 -7.0384 0.2612 1.7547 -6.1729 1.1769 2.0533 4.9697 -2.2938 1.6374 5.8150 -0.0578 0.3179 -6.5799 -0.6995 -5.2965 -2.7690 3.6460 -5.3611 0.0223 3.5146 -2.9178 -2.7754 4.0428 -1.7924 -2.0792 4.2401 0.4722 -4.4827 0.4187 1.3564 -4.8618 1.2885 -3.0032 0.0870 3.8580 2.6975 0.1894 3.1068 2.9033 1.3123 -0.7741 0.1068 -2.4592 -2.5935 2.2622 2.5265 -0.1381 0.8890 -0.2336 -3.5134 1.3212 0.8262 3.0353 1.3473 -0.0288 -2.1364 1.0257 1.3695 1.6509 -0.1205 0.8442 -3.8351 -0.6717 0.1693 4.3347 -0.0810 -5.3016 -0.6907 2.2092 4.8913 -0.8508 -4.1524 -2.0728 3.7906 -1.9361 -0.6022 4.1122 -4.1849 -0.6036 3.7123 -0.4421 2.3793 -5.7963
2.4910 1.6429 5.2451 2.5889 -0.3409 3.7622 0.7708 1.0405 -7.0531 2.2825 2.9393 -6.7013 0.1026 2.9130 -5.5911 4.5280 2.7080 -0.4907 0.2978 0.9172 1.0351 0.0633 0.5866 -3.7039 -1.6214 2.1315 4.6534 2.9095 -2.2114 -1.2233 3.4510 -0.8004 -1.3327 0.8183 -4.5623 -0.6019 1.7644 -1.7544 -3.3956 3.1313 1.4416 -1.9444 2.2544 4.2730 -0.3645 1.8824 2.5801 1.3272 -0.0889 0.6518 3.6844 1.8876 1.3824 -4.9146 1.4129 -4.1951 -2.2710 -0.9746 5.7208 -2.7668 -1.1780 5.3998 -1.3659 0.2366 5.5564 -3.3276 -5.1490 -3.9952 4.0927 -4.2274 -4.1482 5.0592 -2.9836 -4.8162 -0.4314 -3.0964 -6.1528 -0.4674 -0.1537 4.9397 -0.6263 1.3404 5.0465 -2.5344 -1.6656 -4.2297 -0.4832 -5.1472 -2.7996 3.2706 -3.2405 -3.1107 5.2905 -4.2318 -0.6598 2.6267 -3.3078 0.2904 2.8139 -0.8697 -6.4721 -0.6116 -2.0398 -7.0285 -0.5535 -2.3188 -0.9864 4.7365 2.3142 1.1429 3.8329 3.3197 1.9722 -0.5390 1.6560 -2.4244 -2.0426 2.1341 2.7928 -0.0770 2.2674 -0.3164 -3.3097 0.9615 1.5555 3.2802 2.4948 0.1291 -1.9308 0.9942 1.6162 1.7658 1.2582 0.5824 -3.9791 -1.3143 1.0789 4.1207 -0.5895 -5.0144 -0.6230 1.1498 4.7405 -1.2388 -4.2300 -1.8329 3.4680 -2.3602 0.0259 3.9295 -3.2334 -1.9936 4.5385 1.2581 2.0475 -6.0375
2.6620 2.0772 5.3054 3.1672 0.3873 3.5635 1.2389 -0.8563 -6.7984 3.1454 0.6189 -7.2404 1.0570 1.5745 -6.3917 4.1926 3.2255 -0.7383 0.2770 0.9697 1.2600 0.5153 0.1350 -3.7104 -1.4011 2.0639 4.9856 3.3064 -1.8191 -0.2354 3.7453 -0.5024 -0.8258 0.4508 -4.5563 -0.9901 1.9543 -2.0601 -2.4191 3.0422 1.4720 -1.8806 1.6820 4.3313 -0.6007 1.6966 2.7961 1.2763 0.2614 0.7851 3.9481 2.4741 0.1913 -4.9692 1.0181 -3.0742 -0.1237 -2.0623 5.1345 -2.5028 -0.9024 4.7330 -3.2783 -1.9780 5.2349 -1.1641 -5.2195 -3.5268 3.2314 -5.1865 -2.6678 2.1979 -3.2880 -4.9157 -0.3109 -3.7497 -4.4482 -1.4807 0.2600 4.4611 -2.6591 -0.7203 4.9538 -0.4956 -1.8617 -4.9869 -0.1059 -4.3372 -3.3325 4.3659 -4.2737 -1.5415 2.2199 -2.6276 -2.1040 5.5448 -1.8017 -1.0520 5.5896 -1.6836 -4.1044 -2.3152 -2.9609 -4.0403 -2.5311 -2.6032 -0.2697 3.3428 2.5288 1.7276 3.8428 3.1592 2.2697 -0.5960 2.4714 -2.7006 -1.1425 1.8472 2.8923 -0.1590 2.5795 -0.7258 -2.7921 1.0855 1.8291 3.3834 2.6526 0.0987 -1.5865 0.9685 1.7816 1.8688 1.7130 -0.0871 -3.8471 -0.9748 1.0392 4.4805 -1.0282 -4.5618 -1.0641 0.3499 4.5657 -1.2127 -3.4881 -2.2877 4.4013 -1.8686 -0.1578 4.4032 -3.4582 -1.3447 3.2733 1.9731 0.3744 -6.3171
2.7918 0.7217 4.7263 2.6939 -0.4273 2.5349 0.4569 1.3696 -7.3929 2.8196 1.8709 -6.9708 1.0951 3.3231 -6.0193 4.0690 1.4939 -0.6723 -0.2564 1.4717 1.0350 -0.5915 1.6282 -4.1964 -1.1901 1.7168 5.0298 0.6540 -2.2787 -1.6035 1.2343 -0.9561 -1.1549 -1.8342 -4.3563 -1.2140 -0.6170 -1.1337 -3.3949 2.2125 0.9710 -2.0804 2.7906 3.9514 -0.6345 1.7089 2.6774 1.1468 0.0428 0.4558 3.4915 1.4346 1.0461 -5.1878 -1.3058 -3.6743 -2.8089 0.3442 7.4053 -1.2717 1.1249 7.2524 -0.0575 0.3828 6.4546 -2.2226 -5.1437 -4.0515 3.8429 -4.0464 -4.4563 4.5056 0.2788 -7.4520 -0.4694 1.0943 -6.9207 0.4545 1.8824 6.1557 0.1212 1.2067 5.2735 -2.0348 -0.7464 -6.6195 -1.0513 -5.2380 -2.6866 3.3595 -2.9629 -3.5243 4.7522 -4.3368 -0.4657 3.0648 -3.3282 0.3928 3.2585 0.0951 -4.9019 0.3688 1.0239 -5.6263 0.9130 -2.0382 -1.3412 4.5373 2.4465 0.8735 3.2635 2.6573 1.4205 -0.7068 -0.7105 -2.0777 -2.2145 1.9995 2.7130 -0.2689 0.6491 -0.2808 -3.3863 1.0404 1.4187 3.0859 0.9807 0.1850 -2.0364 0.7459 1.8251 1.6517 0.3974 0.9070 -4.2833 -1.0531 0.8006 4.2378 -0.8419 -5.3303 -0.7005 1.9117 5.1208 -0.8989 -4.2343 -1.8135 3.5719 -2.1824 -0.1583 4.0311 -3.0422 -2.2535 4.3138 1.4347 1.8904 -6.3650
2.1814 2.8208 5.2227 3.0216 1.4255 3.3582 1.6529 -0.1526 -6.8692 3.7658 1.0838 -6.7373 1.6690 2.2254 -6.1977 3.8689 3.1659 -0.1290 -0.1708 1.3200 1.2613 0.4338 0.7265 -3.8728 -1.6870 1.8286 5.1279 2.4412 -1.9000 -0.3346 2.3775 -0.3946 -0.2087 0.2922 -4.6425 -2.4889 1.3731 -1.7679 -2.5755 2.7356 1.5567 -1.4761 1.6021 4.6348 -0.7486 0.9486 3.3386 1.2087 0.1292 1.0342 3.8925 2.5931 0.5123 -4.7192 1.6827 -4.2086 -1.4178 -1.4646 5.6333 -3.5605 -1.4562 6.2052 -2.2263 -0.5040 4.7672 -3.9294 -4.6459 -4.2981 4.0417 -5.3468 -3.2468 3.5830 -2.2552 -6.8270 -0.6691 -3.2690 -5.9491 -0.6250 -0.4914 5.8637 -1.3538 0.5469 4.4093 -2.9934 -1.0124 -6.4208 -1.2815 -3.2850 -4.1135 4.5089 -4.7371 -1.9310 3.5395 -1.3730 -2.7260 4.9959 -0.8299 -1.5039 5.0293 -2.0784 -4.3215 -1.6319 -3.2173 -4.6660 -1.1158 -2.8663 -0.5119 3.9487 2.0690 2.5324 3.7444 2.6838 2.3997 -0.2207 1.3458 -2.4408 -1.2199 1.4372 3.2566 -0.1468 2.1247 -0.4448 -2.6023 0.6271 2.2734 3.3431 1.9250 0.3440 -1.3849 0.4284 2.2241 1.8394 1.5906 0.3273 -3.7859 -1.0817 0.9537 4.5302 -0.8584 -5.1636 -1.7175 0.5416 4.9208 -1.7489 -2.7126 -2.8943 4.4881 -1.6789 -0.4202 4.4593 -3.4730 -1.7473 3.9668 2.4062 0.9088 -6.1005
2.7540 1.5433 4.9434 2.7086 -0.2548 3.2378 3.2946 -0.6666 -7.3740 4.8806 1.1852 -7.1236 2.4768 1.6360 -7.0049 3.9715 3.5273 -0.9878 0.1290 0.8337 1.0322 1.4208 -0.1253 -4.6994 -1.4452 2.4897 4.5359 2.4713 -1.6888 -0.5198 3.2660 -0.4390 -0.8134 -0.1577 -3.1899 -0.4500 2.8651 -2.0860 -3.0160 3.2835 1.5443 -2.1093 1.2709 4.0260 -0.9168 1.6280 2.6018 1.0092 0.0252 0.8492 3.7409 3.6216 0.4331 -5.2187 0.3889 -2.5285 -2.0451 -2.6517 3.9348 -2.6162 -1.4742 3.7422 -3.4433 -2.5224 4.1172 -1.2899 -5.0190 -3.5907 5.2321 -4.1278 -3.5073 6.2350 -3.9537 -3.5755 -0.5418 -4.0133 -4.8955 -0.7753 -0.2508 3.7461 -2.8850 -1.2012 4.1366 -0.6879 -2.6587 -2.9536 -0.4010 -4.9970 -2.6151 4.1582 -3.1502 -2.4359 6.2488 -4.0745 -0.6672 3.0701 -3.1585 0.3087 3.0589 -1.7723 -5.1365 -0.7674 -2.9222 -5.7249 -0.8846 -2.2075 -0.4959 5.2395 2.4441 1.2083 3.5050 3.1855 2.3596 -0.8356 2.1751 -2.5341 -1.7413 1.7607 2.6802 -0.4266 3.1980 -0.6037 -3.1347 1.0464 1.6603 3.1215 2.7269 0.2014 -2.0079 0.8665 1.6215 1.6169 2.6149 -0.0838 -4.4238 -1.1705 1.3585 4.1738 -1.5474 -3.6860 -0.5486 -0.1112 3.9429 -1.4525 -4.0898 -1.6193 4.1551 -2.2288 0.3023 4.2200 -3.1227 -1.5221 5.2600 3.5538 0.6358 -6.6518
1.5211 3.6951 5.2828 2.6961 1.6519 4.5161 0.8890 2.0035 -6.9283 3.3256 1.7345 -6.9095 2.2670 3.2324 -5.2874 3.8363 2.9491 -0.1969 0.3669 0.9560 1.4950 0.0719 1.2896 -3.9210 -2.2592 1.9010 4.6002 2.3018 -1.9954 -1.0937 2.3082 -0.5313 -0.7080 0.7197 -4.8468 -0.8055 0.8560 -1.4705 -3.0449 2.5712 1.5856 -1.6938 1.6147 4.5623 -0.5750 1.0712 3.1587 1.3288 -0.0855 1.1672 4.1438 2.0025 0.8067 -5.1277 1.1652 -4.0653 -2.3752 -1.6456 6.0757 -2.8958 -0.6150 5.2548 -3.5053 -1.5954 6.3533 -1.5809 -3.7197 -4.8113 3.3615 -3.7734 -4.1123 2.2147 -2.8669 -6.1410 -0.8068 -2.6149 -7.4312 -1.0755 0.3920 4.7723 -2.7559 -0.5048 5.8373 -0.7724 -1.7569 -5.2232 -0.7136 -3.1635 -4.2011 4.5544 -3.2681 -2.7533 2.1656 -2.1639 -2.3436 5.7282 -1.7362 -1.0756 5.7063 -0.3865 -7.1111 -1.1993 -1.3627 -7.9617 -1.2785 -2.3008 -0.8739 3.2677 1.7755 2.7785 4.1124 2.6120 2.2544 -0.3355 1.0320 -2.3515 -1.8268 1.4117 3.1456 -0.0772 1.7301 -0.2216 -3.0156 0.4674 2.3291 3.4887 1.7306 0.3921 -1.6861 0.6328 2.0382 2.0101 1.1569 0.7305 -4.0357 -1.4272 1.0355 4.3862 -0.5108 -5.6539 -0.9468 0.4397 5.0610 -1.3331 -2.6994 -2.9365 4.5259 -1.8605 -0.3963 4.3880 -2.7551 -2.1737 3.2677 2.1071 1.9299 -6.0365
-3.8772 1.7990 5.1030 -2.0856 3.2716 4.2610 1.7756 1.9746 -6.4138 3.1645 3.5909 -5.1972 0.7448 3.9310 -5.3192 0.8611 3.3807 1.1270 -2.9316 0.6172 0.6579 -0.4963 1.3595 -4.1020 -2.4946 -1.5968 3.7069 0.1850 -1.6538 -0.7210 0.5317 -0.2510 -0.2687 1.9871 -4.5613 -1.6913 0.8351 -1.0215 -2.9974 0.7291 2.0252 -0.8223 -1.3027 4.5756 -0.0684 -2.2654 2.7603 1.2048 -1.5447 0.5202 3.3919 1.6993 2.1303 -3.9794 0.6263 -3.6546 -2.4707 -3.1512 5.8920 -3.6913 -1.7269 5.6195 -3.6347 -3.9147 5.7191 -2.5978 4.2440 -3.3680 2.8698 3.6886 -3.1898 1.6592 0.5744 -6.8195 1.0429 0.4673 -7.9523 0.3320 -1.1689 5.1793 -2.4931 -3.3115 5.2593 -1.3597 1.1140 -5.6471 0.3981 3.5173 -2.9835 4.0651 2.3563 -2.6298 1.5531 1.5873 -2.0495 5.1766 0.3630 -1.5156 5.0854 1.3492 -7.0299 -1.5275 0.8661 -8.1000 -0.9759 0.3903 -1.7670 2.5891 -3.1960 2.3274 3.8639 0.0208 2.4771 0.4331 1.0776 -2.0133 -1.8847 -1.3409 3.0755 0.1412 1.0433 0.4036 -2.5061 -2.7507 1.1853 2.9767 0.2547 0.7327 -1.3123 -2.6593 1.4746 1.4962 0.6316 1.3300 -3.6221 -1.5447 -0.8366 3.6077 1.4658 -5.6931 -0.8929 -1.9967 4.9778 -1.3167 2.2819 -2.4532 3.9774 -0.1660 -1.4041 3.7002 1.6641 -2.2828 2.6543 1.8283 2.8846 -5.2083

>  <OB_ATOM_TYPES> (1idaB1)
C.3 C.3 C.3 C.3 C.3 O.3 O.2 O.2 O.2 C.3 C.3 C.3 C.3 C.3 C.3 N.am N.am N.am S.3 C.ar C.ar C.ar C.ar C.ar C.ar C.ar C.ar C.ar C.ar C.ar C.ar C.ar C.ar C.ar N.ar N.ar C.3 C.3 C.3 C.3 C.3 C.3 N.3 C.2 C.2 C.2 C.ar C.ar C.ar C.ar C.ar C.3

>  <ENSEMBLE_RMSD> (1idaB1)
1.900 1.933 2.513 2.551 2.595 2.608 2.643 2.657 2.678 2.693 2.695 2.748 2.762 2.836 2.858 2.878 2.887 3.094 3.101 3.116 3.134 3.153 3.193 3.263 3.268 3.303 3.366 3.407 3.408 3.430 3.481 3.554 3.611 3.719 3.748 3.770 3.835 3.867 3.920 3.938 3.947 3.973 3.985 4.067 4.089 4.137 4.259 4.282 4.308 5.464

$$$$
