
 OpenBabel03071213D

 14 14  0  0  0  0  0  0  0  0999 V2000
   47.1590   17.5310  -23.1480 C   0  0  0  0  0
   47.8740   21.7230  -24.5530 N   0  0  0  0  0
   51.0820   22.8760  -20.2030 O   0  0  0  0  0
   47.4720   19.1400  -24.8740 O   0  0  0  0  0
   49.6200   24.5050  -20.4940 O   0  0  0  0  0
   46.3420   19.8720  -23.0760 N   0  0  0  0  0
   47.4300   20.6720  -21.0740 C   0  0  0  0  0
   48.3480   21.4960  -20.4560 C   0  0  0  0  0
   48.9150   22.4580  -22.5620 C   0  0  0  0  0
   46.9950   18.9230  -23.7570 C   0  0  0  0  0
   49.9690   23.3040  -20.5790 C   0  0  0  0  0
   48.0130   21.6420  -23.1890 C   0  0  0  0  0
   47.2480   20.7310  -22.4430 C   0  0  0  0  0
   49.0960   22.4080  -21.1930 C   0  0  0  0  0
  1 10  1  0  0  0
  2 12  1  0  0  0
  3 11  1  0  0  0
  4 10  2  0  0  0
  5 11  2  0  0  0
  6 10  1  0  0  0
  6 13  1  0  0  0
  7  8  2  0  0  0
  7 13  1  0  0  0
  8 14  1  0  0  0
  9 12  1  0  0  0
  9 14  2  0  0  0
 11 14  1  0  0  0
 12 13  2  0  0  0
M  END
>  <MOLID> (1iveA1)
1iveA1

>  <SMILES_CANONICAL> (1iveA1)
CC(=O)Nc1ccc(cc1N)C(=O)O	

>  <FINGERPRINT> (1iveA1)
0000000000000000010000000000001000000000000000000000100000000000000000000000000000000001000000001000000000001001000001100000000000000000000000000000000000000000000000000000000001000000000000000000000000000000000000000000000000000000000000000000000000000000000000000000000000000001000000000000000000000000000010000100000000000000001010000000000000000100010000000000000010000000000000000000000000000000100000000000000000000000000100001000000000000000000000000000010000000000010000000001000000001000000000000000100000000000000001000000000000000000000000100000000001000000000000000000100000000000000000000000000010000000000000000000000000000000010000000001000000000000000000000000100000000010000011100010000000100000000000000010000000000000000000000100000000000000000001000000000000000100000000000000000010000000000000000000000000000000000000000000000000000000001000000000000000000000000000001000000000000000010000001000000000000000000000000000011000000000000000011100000000000000000100000000000000000000000000000000001000000000

>  <MACCS166> (1iveA1)
000000000000000000000000000000000000000000001000010001000000000000000000000100100001000000010000001000000001010000001000001000000010101100111101010011100101111110111000

>  <OB_MW> (1iveA1)
194.069

>  <OB_logP> (1iveA1)
1.5796

>  <OB_PSA> (1iveA1)
92.42

>  <OB_MR> (1iveA1)
52.1184

>  <OB_ATOMIC_CHARGES> (1iveA1)
0.0967978038 -0.1266918567 -0.2405515799 -0.2729710715 -0.2405515799 -0.177831154 0.0181789942 0.0079984107 0.0259573959 0.2460998077 0.3877960899 0.1045377209 0.0900339233 0.0811970956

>  <MCT_HBD> (1iveA1)
3

>  <MCT_HBA> (1iveA1)
5

>  <ENSEMBLE_TOTAL> (1iveA1)
2

>  <ENSEMBLE_COORDS> (1iveA1)
-1.0955 -3.7034 -0.8908 -0.3805 0.4886 -2.2958 2.8275 1.6416 2.0542 -0.7825 -2.0944 -2.6168 1.3655 3.2706 1.7632 -1.9125 -1.3624 -0.8188 -0.8245 -0.5624 1.1832 0.0935 0.2616 1.8012 0.6605 1.2236 -0.3048 -1.2595 -2.3114 -1.4998 1.7145 2.0696 1.6782 -0.2415 0.4076 -0.9318 -1.0065 -0.5034 -0.1858 0.8415 1.1736 1.0642
-0.2761 -3.1932 -1.7022 0.1613 0.0461 -2.2186 1.1840 3.3694 1.9522 -2.2952 -2.3614 -2.6730 2.9543 1.9204 1.9216 -1.6821 -1.6020 -0.5794 -0.9722 -0.3603 1.3337 -0.1747 0.5371 1.9419 0.8801 1.0675 -0.1773 -1.5130 -2.3465 -1.7270 1.7771 2.1755 1.7285 0.0024 0.1187 -0.8510 -0.8481 -0.6217 -0.0986 0.8022 1.2504 1.1491

>  <OB_ATOM_TYPES> (1iveA1)
C.3 N.pl3 O.co2 O.2 O.co2 N.am C.ar C.ar C.ar C.2 C.2 C.ar C.ar C.ar

>  <ENSEMBLE_RMSD> (1iveA1)
0.000 1.048

$$$$
