
 OpenBabel03071213D

 44 46  0  0  0  0  0  0  0  0999 V2000
    3.4040   15.5400   22.0860 C   0  0  0  0  0
    2.5830   16.8560   15.2660 C   0  0  0  0  0
    0.8420   16.3720   16.9770 C   0  0  0  0  0
    1.2790   14.7730   14.9960 C   0  0  0  0  0
   -0.7240   21.6370   26.6110 N   0  0  0  0  0
    3.5990   20.2980   20.2190 O   0  0  0  0  0
    5.7700   15.9210   21.2610 C   0  0  0  0  0
    1.4060   22.3930   26.3260 O   0  0  0  0  0
    1.9280   15.5520   19.5430 O   0  0  0  0  0
    0.0270   19.0360   22.4640 O   0  0  0  0  0
   -0.7050   23.8550   23.4910 O   0  0  0  0  0
   -3.7750   21.5810   19.2160 C   0  0  0  0  0
   -2.7190   22.6890   19.0100 C   0  0  0  0  0
   -3.3410   20.3190   18.4440 C   0  0  0  0  0
   -1.2980   22.2280   19.3780 C   0  0  0  0  0
   -1.9630   19.8110   18.9230 C   0  0  0  0  0
   -3.7730   24.1890   23.6930 C   0  0  0  0  0
   -4.7710   24.4830   22.8210 C   0  0  0  0  0
    2.8340   14.9600   17.0030 C   0  0  0  0  0
    0.5770   20.4900   18.8850 C   0  0  0  0  0
    2.6810   18.1850   20.6320 C   0  0  0  0  0
    0.7170   20.6430   24.8890 C   0  0  0  0  0
    3.4380   15.9240   17.9510 N   0  0  0  0  0
    1.0580   20.7520   21.3030 N   0  0  0  0  0
   -1.0370   21.6280   23.4590 N   0  0  0  0  0
   -3.8310   21.8550   23.0180 N   0  0  0  0  0
   -7.7800   22.4070   21.9680 C   0  0  0  0  0
   -7.2590   21.1300   22.0650 C   0  0  0  0  0
   -6.9540   23.4930   22.1930 C   0  0  0  0  0
   -5.9240   20.9500   22.3910 C   0  0  0  0  0
    2.6800   19.5110   19.8990 C   0  0  0  0  0
   -0.8830   20.8890   18.7500 C   0  0  0  0  0
    1.2490   20.0590   20.0240 C   0  0  0  0  0
   -2.9450   22.9890   23.3790 C   0  0  0  0  0
    0.3770   21.1990   23.5220 C   0  0  0  0  0
    3.7040   17.1610   20.0340 C   0  0  0  0  0
    4.3390   16.4100   21.2750 C   0  0  0  0  0
    0.4710   21.6360   26.0090 C   0  0  0  0  0
    2.9470   16.1580   19.1440 C   0  0  0  0  0
    0.4870   20.1840   22.3630 C   0  0  0  0  0
   -1.4620   22.8670   23.4430 C   0  0  0  0  0
   -5.6350   23.3160   22.5610 C   0  0  0  0  0
   -5.1190   22.0330   22.6500 C   0  0  0  0  0
    1.8730   15.7200   16.0320 C   0  0  0  0  0
  1 37  1  0  0  0
  2 44  1  0  0  0
  3 44  1  0  0  0
  4 44  1  0  0  0
  5 38  1  0  0  0
  6 31  1  0  0  0
  7 37  2  0  0  0
  8 38  2  0  0  0
  9 39  2  0  0  0
 10 40  2  0  0  0
 11 41  2  0  0  0
 12 13  1  0  0  0
 12 14  1  0  0  0
 13 15  1  0  0  0
 14 16  1  0  0  0
 15 32  1  0  0  0
 16 32  1  0  0  0
 17 18  1  0  0  0
 17 34  1  0  0  0
 18 42  1  0  0  0
 19 23  1  0  0  0
 19 44  1  0  0  0
 20 32  1  0  0  0
 20 33  1  0  0  0
 21 31  1  0  0  0
 21 36  1  0  0  0
 22 35  1  0  0  0
 22 38  1  0  0  0
 23 39  1  0  0  0
 24 33  1  0  0  0
 24 40  1  0  0  0
 25 35  1  0  0  0
 25 41  1  0  0  0
 26 34  1  0  0  0
 26 43  1  0  0  0
 27 28  2  0  0  0
 27 29  1  0  0  0
 28 30  1  0  0  0
 29 42  2  0  0  0
 30 43  2  0  0  0
 31 33  1  0  0  0
 34 41  1  0  0  0
 35 40  1  0  0  0
 36 37  1  0  0  0
 36 39  1  0  0  0
 42 43  1  0  0  0
M  END
>  <MOLID> (1ivqB1)
1ivqB1

>  <SMILES_CANONICAL> (1ivqB1)
NC(=O)C[C@@H](C(=O)N[C@H]([C@H](C[C@H](C(=O)NCC(C)(C)C)C(=C)C)O)CC1CCCCC1)NC(=O)[C@@H]1CCc2c(N1)cccc2	

>  <FINGERPRINT> (1ivqB1)
0000000000000111010000000000001010001001000000000111011000000000000000100001000000000001001000100000010010000001000001100000000000100000000110000000000010000000000000000000000000100000010000000000000100001000000000000000000000100000000100000000010000001000000000000111000000001000010000000000000000011000000010111101100000001000001100000000000000000100010100000000001110110000000000000000111000000000100000000001101000000000101000000010000000000001100000000001101000000100010000000000000000001100000000000000100000010000001001001000000000000000000000100000000000000000000000010000101001000001001000000001100000000000000000000000001000000001010000000001000000000001000000000011100000101100000001100011000000100011000000000000000000000011000000110101000000000000000111100000000000000000000100000000000010000001000000000000000010000000000000000000000000000000000000001001000000000000000100001000000010001000000010001000000000000010000000000000011000000000000110110010010000000010010100000000000000100000110000000010111000000000

>  <MACCS166> (1ivqB1)
000000000000000000000000010000000100000000001000010011000000000001000000010100110001000001110010111000011001011100111101100000011011001111111101111010111111111110111000

>  <OB_MW> (1ivqB1)
611.405

>  <OB_logP> (1ivqB1)
5.3453

>  <OB_PSA> (1ivqB1)
162.65

>  <OB_MR> (1ivqB1)
176.743

>  <OB_ATOMIC_CHARGES> (1ivqB1)
0.0268338719 0.0017647108 0.0017647108 0.0017647108 -0.0877258139 -0.2212820254 -0.0086562389 -0.2715771462 -0.2730115616 -0.2714729648 -0.2714769214 5.8e-09 7.228e-07 7.228e-07 5.72327e-05 5.72327e-05 0.0357130204 0.0299340665 0.1150400817 0.0242746031 0.0478821907 0.1195191604 -0.2051711819 -0.2031349438 -0.1958189235 -0.2303579057 -0.0002387693 0.0013002202 -0.0029961567 0.0157782779 0.1725553804 0.0017907138 0.125599884 0.1701933959 0.1819210415 0.0990326866 -0.0355439007 0.2629910646 0.244755541 0.2617496078 0.2615289153 -0.0072624468 0.0617960679 0.0201270598

>  <MCT_HBD> (1ivqB1)
6

>  <MCT_HBA> (1ivqB1)
10

>  <ENSEMBLE_TOTAL> (1ivqB1)
50

>  <ENSEMBLE_COORDS> (1ivqB1)
3.8955 -4.4619 1.0504 3.0745 -3.1459 -5.7696 1.3335 -3.6299 -4.0586 1.7705 -5.2289 -6.0396 -0.2325 1.6351 5.5754 4.0905 0.2961 -0.8166 6.2615 -4.0809 0.2254 1.8975 2.3911 5.2904 2.4195 -4.4499 -1.4926 0.5185 -0.9659 1.4284 -0.2135 3.8531 2.4554 -3.2835 1.5791 -1.8196 -2.2275 2.6871 -2.0256 -2.8495 0.3171 -2.5916 -0.8065 2.2261 -1.6576 -1.4715 -0.1909 -2.1126 -3.2815 4.1871 2.6574 -4.2795 4.4811 1.7854 3.3255 -5.0419 -4.0326 1.0685 0.4881 -2.1506 3.1725 -1.8169 -0.4036 1.2085 0.6411 3.8534 3.9295 -4.0779 -3.0846 1.5495 0.7501 0.2674 -0.5455 1.6261 2.4234 -3.3395 1.8531 1.9824 -7.2885 2.4051 0.9324 -6.7675 1.1281 1.0294 -6.4625 3.4911 1.1574 -5.4325 0.9481 1.3554 3.1715 -0.4909 -1.1366 -0.3915 0.8871 -2.2856 1.7405 0.0571 -1.0116 -2.4535 2.9871 2.3434 0.8685 1.1971 2.4864 4.1955 -2.8409 -1.0016 4.8305 -3.5919 0.2394 0.9625 1.6341 4.9734 3.4385 -3.8439 -1.8916 0.9785 0.1821 1.3274 -0.9705 2.8651 2.4074 -5.1435 3.3141 1.5254 -4.6275 2.0311 1.6144 2.3645 -4.2819 -5.0036
6.5200 -2.9772 -0.9154 1.6476 -6.7751 -1.7658 0.4555 -6.6652 -3.9032 0.2241 -4.8271 -2.2988 1.9037 2.4567 5.3336 1.4961 -1.7466 -0.9172 6.3191 -1.7790 -3.0326 -0.1994 1.8306 6.0567 3.2950 -2.5113 -4.0376 0.3554 -0.8995 1.6575 -1.4477 3.4402 2.7301 0.4177 2.9881 -4.3568 1.6525 3.1432 -3.4970 -0.6019 2.1211 -3.6512 2.2691 1.7952 -3.1937 -0.0297 0.7515 -3.3508 -4.0195 2.4488 3.9300 -5.4738 2.0232 3.8903 2.3661 -5.1691 -3.5387 1.0633 1.0329 -1.1185 3.6716 -1.0038 -1.5966 0.8146 0.6422 4.2379 3.1567 -4.3612 -2.6403 1.9339 0.7213 1.1467 -1.0779 1.1463 2.7940 -3.9213 2.4507 1.5027 -8.1151 2.7063 1.2376 -7.3641 2.9365 0.1470 -7.4751 2.4011 2.5014 -5.9179 2.8724 0.2355 2.6067 -0.9581 -0.5219 1.2824 0.8140 -2.5983 2.1831 0.4781 -0.2586 -3.3096 1.9084 2.7067 0.3654 1.1787 2.8914 4.2251 -2.3980 -1.8087 5.7063 -2.3795 -2.0071 0.7540 1.7047 5.2958 3.5243 -3.0715 -2.9697 0.8479 0.2118 1.8339 -1.8558 2.2840 2.7365 -6.1344 2.3290 2.5861 -5.3012 2.5506 1.3918 1.1872 -5.8454 -2.8649
3.3838 -4.6351 0.8353 4.5639 -6.6611 -5.2674 6.4797 -5.4958 -6.2598 4.3284 -4.3384 -6.0778 0.5867 3.0019 4.2283 0.6579 -2.9203 -0.7742 5.0823 -2.9008 0.5932 2.2889 1.4524 4.3490 5.4422 -2.4298 -2.5187 -1.2778 -0.6140 0.9330 -2.1831 3.6212 1.2645 -0.7977 1.7856 -5.3554 0.2875 2.2474 -4.4075 -0.7415 0.2828 -5.5239 0.1300 1.5788 -3.0598 -0.8845 -0.4144 -4.1889 -4.6137 1.8059 2.8704 -5.5799 1.8164 4.0375 5.6980 -4.8206 -4.0364 -0.1969 -0.5462 -1.8449 2.7769 -2.0636 -1.5054 0.2196 0.8018 3.3396 4.6051 -4.4962 -3.1522 0.7606 0.2748 0.2759 -1.8002 1.5826 2.3048 -4.2328 4.1818 3.0629 -7.7394 4.6585 5.3470 -7.1616 5.7334 4.7844 -7.2009 3.3377 5.0952 -5.9716 5.5768 3.9692 1.5935 -1.8728 -0.5858 0.1424 0.0668 -3.1820 0.9853 -0.5227 -0.9042 -3.5764 2.8862 3.1057 -0.3962 1.3414 2.0623 3.5482 -3.3560 -1.3390 4.0851 -3.5952 0.0356 1.1592 1.7749 3.9932 4.6524 -3.3594 -2.3727 -0.3863 0.2236 1.0425 -2.4519 2.7827 2.1150 -6.1021 3.1851 4.3346 -5.4146 4.3638 3.7724 5.2518 -5.3219 -5.3954
4.0856 -5.0432 0.4536 5.6565 -5.7240 -3.6217 5.0156 -5.8588 -5.9802 3.9150 -7.3179 -4.3443 1.4229 3.2381 4.3028 0.6054 -2.1089 -1.8042 5.4367 -3.1555 -0.3068 2.8257 2.3005 2.7238 3.6201 -2.3373 -3.1843 -1.4078 0.4920 0.3861 -2.6563 0.3978 3.5051 1.7914 2.9371 -5.2867 2.4937 3.0782 -3.9525 1.3900 1.4996 -5.5437 1.6306 2.5431 -2.8295 0.5412 0.9589 -4.4122 -3.8710 3.0720 4.6303 -4.9914 4.0903 4.6931 3.4116 -4.8892 -4.4053 0.3649 0.5886 -1.9800 2.6938 -1.8695 -0.5983 0.5848 2.8812 2.1031 3.0771 -4.5868 -3.0363 0.8974 0.6606 0.4248 -1.6807 2.2021 2.4020 -5.0944 1.7962 2.9554 -8.7205 3.4225 4.3462 -8.7397 2.3672 3.5144 -7.4544 4.0057 4.7408 -7.4952 1.8079 3.0220 1.2349 -1.4756 -0.7060 1.2580 1.0968 -3.0851 1.1902 0.0334 -0.8407 -3.8453 2.4820 3.2387 -0.3434 1.6845 2.2110 3.0418 -3.2781 -1.0323 4.2510 -3.7739 -0.3023 1.7330 2.7460 3.0572 3.2972 -3.3222 -2.5254 -0.3733 0.9070 0.9043 -2.6835 1.5492 3.0885 -6.2983 3.5024 4.2722 -6.3041 2.3400 3.3660 4.4935 -5.9398 -4.5637
5.1488 -2.2999 1.1209 3.5221 -6.5852 -2.8649 4.2356 -6.1614 -5.1720 2.3302 -4.9239 -4.2521 1.2479 0.0372 4.4538 1.0534 -2.2669 -2.1701 5.4574 -0.2079 -0.1065 1.0393 -2.0816 3.5677 4.8753 -1.6285 -3.0592 -2.1301 0.2249 0.5361 -0.0609 3.4219 3.0062 -1.3244 -1.3202 -5.5948 -1.6090 -1.6637 -4.1494 -0.1709 -0.3571 -5.7820 -1.6267 -0.4384 -3.2608 0.5572 -0.0387 -4.4958 -3.0643 3.1759 4.9149 -4.4413 2.7138 4.4898 4.6579 -4.4479 -3.4711 0.3417 0.7333 -2.1437 2.7014 -0.7953 -1.2462 -0.7598 -0.5276 3.2655 4.2150 -3.7240 -2.3046 0.1713 0.3108 0.2310 -1.6116 1.7094 2.8452 -3.0358 4.4846 2.7752 -7.2129 4.8497 2.9912 -6.5329 5.5459 2.0640 -6.5107 3.9127 3.8478 -5.0930 5.4040 1.9638 1.3108 -1.3741 -1.0985 -0.3997 0.4336 -3.4260 0.2209 -0.3222 -1.0639 -2.2649 3.8248 3.8096 -0.6706 0.7100 2.4031 3.7522 -1.8393 -0.9327 4.8146 -1.3746 0.0055 0.6013 -0.9494 3.7472 4.3613 -2.3544 -2.2138 -0.9934 0.3801 0.9697 -1.1921 2.9761 3.1899 -5.1773 3.7697 3.7425 -4.4144 4.5809 2.7900 3.6814 -5.5168 -3.9223
4.4540 -1.8254 1.6488 2.4392 -6.2798 -1.1024 3.7176 -7.2805 -2.9371 2.2679 -5.3545 -3.3865 1.2544 -2.5042 2.1700 2.1352 -1.8598 -2.9079 5.9175 -0.4065 0.3098 -0.0434 -1.9920 4.0110 5.6954 -2.5145 -2.2910 1.0581 1.8664 0.3713 -2.6090 -0.1223 3.1198 -2.4422 2.6237 -5.1222 -2.2151 2.9686 -3.6662 -1.1609 2.1303 -5.7591 -1.6760 1.7748 -2.9086 -0.6127 0.9350 -5.0093 -2.6695 2.8946 4.0731 -3.2881 4.2803 4.0699 4.3891 -5.0690 -2.1136 -0.0009 -0.0246 -2.8344 3.7026 -0.3936 -1.7450 0.7479 -0.2162 2.6117 4.0453 -3.8750 -1.3816 0.9292 -0.2252 -0.6181 -1.1285 1.1273 1.8271 -4.4083 2.0557 2.6098 -6.8862 5.3538 3.4405 -7.4071 4.2616 2.8560 -5.4957 5.3569 3.8496 -6.5682 3.1076 2.5944 2.4265 -0.5252 -2.5522 -0.4034 1.2465 -3.5402 1.2217 0.1854 -1.9690 -2.9744 2.2336 2.7487 -0.1858 0.0969 1.4595 4.0151 -1.5653 -0.8319 4.8391 -1.1952 0.3586 0.5863 -1.6508 3.0157 4.7048 -2.6797 -1.5865 0.6501 0.7083 0.3605 -2.2525 0.9293 2.6033 -4.7131 4.2879 3.6147 -5.2573 3.1116 2.9122 3.2011 -5.9764 -2.3730
5.5279 -2.5443 0.5614 6.0238 -6.4576 -2.0773 6.4007 -6.6620 -4.4908 4.1097 -6.6889 -3.6226 0.3525 -0.5178 5.0982 1.3385 -2.7950 -1.6506 5.8582 -0.5159 -0.7601 1.6233 -1.6490 3.5317 4.6103 -1.8097 -3.6788 0.1928 1.7970 0.2275 -3.3894 0.2897 2.3079 -3.8321 1.2965 -3.9532 -2.5830 1.9884 -3.4496 -3.5124 -0.0891 -4.4731 -1.9031 1.1552 -2.3838 -2.8036 -0.9175 -3.4231 -3.4782 2.7465 4.4119 -3.6063 4.2298 4.7123 5.4510 -4.5784 -3.6127 -0.9358 -1.0801 -1.8437 2.9120 -0.9501 -1.4863 0.7872 0.5349 3.0152 4.5530 -3.9135 -2.7010 0.4496 -0.4965 0.0391 -1.3444 1.4144 2.3793 -4.3864 3.0577 2.1827 -5.9153 6.8477 3.1965 -6.3422 6.2374 2.0780 -4.9867 6.1700 4.0780 -5.8442 4.9193 1.7333 1.5497 -1.4288 -1.9592 -1.5547 -0.2202 -2.9193 0.4214 -0.5765 -1.4022 -3.2322 2.6154 2.9333 -0.4013 0.3612 2.0892 3.9648 -2.0352 -1.3610 5.1401 -1.6214 -0.5383 0.9628 -0.6759 3.8763 4.4250 -2.5387 -2.7093 0.0916 0.6652 0.6930 -2.7104 1.2867 2.5070 -4.5261 4.9441 3.7700 -4.9412 4.2889 2.5122 5.4827 -6.0841 -3.4380
-0.1809 -3.4308 -0.7940 6.6124 -4.5140 -3.8494 7.6357 -5.5162 -1.8603 6.7613 -3.2293 -1.7437 0.6136 1.3901 4.4511 2.8712 -0.7618 -3.4506 0.1523 -4.4608 -2.9847 2.2897 -0.1727 4.2006 2.8516 -4.6862 -0.3510 -0.3610 -0.1788 -0.4050 -1.0732 3.7165 1.7476 -2.5213 1.9984 -3.2785 -1.6889 1.7150 -4.5109 -1.9760 3.1636 -2.4813 -0.2019 1.6244 -4.2311 -0.4865 3.0727 -2.2196 -4.0191 2.7857 1.0928 -5.3784 2.2147 1.4604 5.2080 -5.1786 -1.8952 1.6267 1.8273 -2.5608 2.2518 -1.8314 -1.4172 0.5672 -0.0662 2.5440 4.0724 -4.3897 -2.3048 1.7472 0.7848 -0.3259 -1.0871 1.3906 1.5974 -3.4427 3.0869 3.4286 -7.4256 2.5180 4.6554 -6.5368 3.0460 5.5141 -7.0300 2.2367 3.2899 -5.1704 3.2854 5.0897 1.9554 -0.6862 -2.3646 0.1313 1.8061 -2.7681 2.1292 0.6755 -1.7144 -3.0614 2.4273 2.1990 0.3192 1.0616 1.5592 2.0426 -3.1847 -2.0657 0.6483 -3.7110 -1.9964 1.2752 0.3832 3.7902 3.0071 -4.1718 -1.4541 0.4951 0.4867 0.1719 -1.6269 2.6313 1.8506 -5.7682 2.4671 2.8851 -4.7637 2.9732 3.8420 6.5355 -4.5990 -2.3422
3.6979 -5.2616 0.0761 6.6957 -6.3319 -3.4695 8.1801 -4.7678 -4.6335 5.9295 -5.1695 -5.5126 2.5267 -0.1879 2.2697 0.2398 -3.5516 -1.9112 3.9732 -2.9679 0.8611 2.3757 1.7073 3.5811 4.7294 -1.7539 -2.3251 -2.0579 0.3787 0.2852 -1.6154 1.5037 4.3923 -2.6627 2.4201 -4.1769 -3.2259 1.5424 -3.0779 -1.1840 2.6790 -3.9732 -2.4499 0.2449 -2.9742 -0.4139 1.3816 -3.8396 -3.5644 3.4162 1.9051 -5.0477 3.6668 1.7036 6.2642 -3.8777 -3.3982 -0.1851 -0.7314 -2.5730 2.1435 -2.1701 -1.4195 1.0903 1.5765 1.5627 4.8882 -3.9695 -2.9730 0.0983 -0.3400 -0.1522 -1.1745 2.0826 2.2036 -3.8647 3.1946 4.2887 -7.6490 5.0340 4.1237 -7.0271 4.9009 5.3076 -6.9795 4.6151 2.9085 -5.7092 4.2970 5.3713 0.7144 -2.5235 -1.0563 -0.9866 0.5383 -2.7211 -0.2162 -1.3205 -1.1702 -3.3804 2.5033 3.1000 -0.2904 1.0040 1.8172 3.1181 -3.3361 -1.4658 3.5857 -3.7910 -0.1180 2.0465 1.0581 2.5944 4.3240 -2.9136 -2.2820 -0.8628 0.3445 0.5702 -1.9709 2.0058 3.3273 -5.7540 4.0618 2.9609 -5.0918 3.8456 4.2593 6.7430 -5.0373 -4.2463
3.0312 -5.0617 0.5748 4.0041 -7.1540 -3.7212 5.3144 -6.3821 -5.6484 2.9575 -5.7365 -5.4512 2.5387 1.8018 2.8497 0.7946 -2.0169 -2.5182 4.6352 -3.2348 0.8210 1.0516 2.0004 4.6079 4.8320 -2.3534 -2.3676 -0.9679 2.2403 -0.3643 -1.8663 0.4182 4.1121 1.5242 3.1308 -5.5807 0.8723 1.7637 -5.5549 1.3229 3.8526 -4.2652 1.3934 0.9364 -4.3975 1.8308 3.0214 -3.1066 -4.7050 1.4193 2.1583 -6.1896 1.4226 2.4682 4.6716 -4.7628 -3.9177 1.7545 0.8476 -1.9499 2.4958 -1.7066 -0.8204 0.3799 2.7064 2.4154 3.6684 -4.2534 -3.0161 0.4880 0.4844 0.0886 -1.8881 1.8267 2.2741 -4.2187 2.5745 4.2340 -8.2323 3.7769 4.6466 -7.2876 4.3537 5.4083 -7.8565 2.7927 3.6512 -5.8987 3.9575 5.2613 1.0567 -1.4631 -1.2400 1.1711 1.6570 -3.0823 0.6923 0.0124 -1.2622 -3.9451 1.3738 3.4629 -0.5114 1.5909 1.9197 2.9626 -3.1290 -1.0430 3.5896 -3.7471 0.1630 1.3334 2.1350 3.4224 3.9373 -3.1764 -2.1970 -0.3953 1.4927 0.4207 -2.4657 1.1550 3.3306 -6.5713 2.4228 3.5114 -5.5308 3.0097 4.3738 4.2262 -5.9991 -4.6713
1.3066 -5.0650 -0.1286 3.6617 -7.1656 -2.6767 4.8189 -7.3797 -4.8254 2.3856 -7.0897 -4.7966 2.7740 2.6763 2.5175 0.5141 -1.2953 -2.5676 3.3942 -4.0296 0.6073 1.2228 2.8776 4.2194 4.5112 -3.0014 -2.4640 -0.7622 2.0944 -0.7115 -1.7445 1.3417 4.0868 2.3721 5.8234 -2.3700 2.3515 4.9005 -3.5721 1.6936 5.1893 -1.1734 2.9229 3.5333 -3.2454 2.2979 3.8346 -0.8678 -4.2473 3.0879 3.1638 -5.6641 3.2230 2.6352 3.8802 -5.1966 -4.2066 2.6846 1.5383 -1.7456 2.3517 -1.7163 -1.0707 0.4987 3.0443 1.9412 2.9522 -4.4462 -3.3938 0.9837 0.6574 -0.2166 -1.5779 1.8093 1.8111 -4.4843 0.6752 3.3260 -8.6797 0.9533 3.1286 -8.1078 -0.1908 3.5414 -7.8530 2.1064 2.8323 -6.6633 -0.2915 3.6231 1.7488 -0.7788 -2.0957 2.1846 2.9278 -2.0735 1.4991 0.6165 -1.5633 -3.7080 1.7456 2.7340 -0.1517 1.7183 1.6014 2.3123 -3.1768 -1.4780 2.4061 -4.0782 -0.2916 1.5091 2.8465 3.0280 3.3980 -3.5177 -2.4737 -0.0410 1.5267 0.1058 -2.2428 1.5915 2.9977 -6.5128 2.0254 2.9238 -5.8706 0.7504 3.2978 3.6748 -6.6956 -4.1141
1.7647 -5.1856 0.1286 3.7636 -7.0703 -3.7581 5.7472 -6.5721 -5.1103 3.6062 -5.5139 -5.6686 2.7123 2.1471 2.5593 0.8717 -1.6139 -2.9262 3.2794 -3.5896 1.1915 1.3980 1.8744 4.4406 4.9411 -2.8171 -1.5778 -0.8189 2.4053 -0.3502 -2.2529 -0.4666 2.5546 1.0320 4.4640 -4.2177 0.6209 3.1535 -4.8550 2.4204 4.4011 -3.6221 1.0938 1.9287 -4.0994 2.5903 3.2734 -2.6259 -4.5231 2.2236 1.7087 -6.0137 2.4528 1.8645 4.8680 -4.8352 -3.6235 1.9288 1.0036 -1.9466 2.3159 -1.7136 -1.0058 0.4159 2.7556 2.4360 3.7360 -4.1895 -3.0071 0.5259 0.5416 -0.0051 -1.8029 1.7788 2.2309 -4.4308 1.2909 3.9652 -7.9272 3.3867 5.0200 -7.1960 2.7880 5.9755 -7.5205 3.2856 3.6322 -5.9961 2.0559 5.6167 0.9679 -1.2833 -1.5493 1.4782 2.2476 -2.6720 0.7569 0.2137 -1.3939 -4.0952 1.0545 2.5697 -0.4081 1.6078 1.8949 2.5864 -3.1905 -1.1813 2.5937 -3.9520 0.1024 1.5352 2.2038 3.2678 3.8971 -3.3710 -1.9090 -0.2883 1.5845 0.3908 -2.6317 0.7001 2.4600 -6.4208 2.5880 3.2941 -5.6023 1.9397 4.3308 4.4807 -5.9864 -4.5299
-0.3262 -2.9129 0.0171 0.3148 -5.1106 -4.3118 2.2321 -6.2952 -5.2779 2.1075 -3.8547 -5.4571 2.6284 3.6114 2.8911 4.0583 -0.6944 -1.8501 1.4426 -3.8093 1.4450 0.9445 3.5051 4.4718 3.8476 -4.0847 -0.8229 -0.2833 2.0353 -0.5416 -0.9188 0.9547 4.2737 2.4520 3.2417 -5.6453 2.4189 1.7509 -5.3838 1.6931 3.9943 -4.5726 2.9839 1.4395 -4.0155 2.2379 3.6760 -3.1965 -3.4837 -0.1297 2.0223 -4.8410 -0.7562 2.2828 2.5672 -4.9533 -3.2566 2.8787 1.9259 -1.5947 3.0316 -1.4961 0.1676 0.3818 3.4394 2.1399 2.3131 -3.7360 -2.5285 1.6621 1.0761 0.3070 -1.2469 1.6391 2.0828 -3.9528 1.6609 3.5922 -8.0679 0.7987 3.5686 -7.6360 1.9592 4.0907 -7.1211 -0.1163 2.9626 -6.2224 2.2823 4.0710 3.4291 -0.2837 -0.6490 2.2296 2.1839 -2.9319 2.2976 0.6898 -0.9353 -3.0411 0.5753 3.2829 0.1271 1.9813 1.8388 2.0920 -2.4451 -0.5473 1.1062 -3.0777 0.3780 1.3209 3.5175 3.3052 2.8588 -3.5205 -1.2807 0.4368 1.7054 0.3932 -1.6295 1.0699 3.2771 -5.8083 0.1763 2.9417 -5.3183 1.4218 3.5590 1.8032 -5.0352 -4.5629
-0.3262 -2.9129 0.0171 0.3148 -5.1107 -4.3119 2.2321 -6.2953 -5.2779 2.1074 -3.8547 -5.4571 2.6284 3.6115 2.8911 4.0583 -0.6944 -1.8502 1.4425 -3.8092 1.4450 0.9445 3.5052 4.4718 3.8476 -4.0847 -0.8230 -0.2833 2.0353 -0.5416 -0.9188 0.9547 4.2737 2.4520 3.2417 -5.6454 2.4189 1.7509 -5.3837 1.6931 3.9942 -4.5726 2.9838 1.4395 -4.0154 2.2379 3.6761 -3.1966 -3.4837 -0.1297 2.0224 -4.8410 -0.7562 2.2828 2.5672 -4.9534 -3.2567 2.8787 1.9259 -1.5947 3.0317 -1.4961 0.1677 0.3818 3.4394 2.1399 2.3130 -3.7359 -2.5284 1.6621 1.0760 0.3070 -1.2469 1.6391 2.0828 -3.9528 1.6608 3.5922 -8.0679 0.7987 3.5686 -7.6360 1.9592 4.0907 -7.1212 -0.1162 2.9625 -6.2224 2.2823 4.0710 3.4292 -0.2837 -0.6489 2.2296 2.1840 -2.9319 2.2976 0.6898 -0.9353 -3.0411 0.5754 3.2830 0.1270 1.9813 1.8388 2.0919 -2.4451 -0.5473 1.1062 -3.0778 0.3780 1.3210 3.5174 3.3053 2.8589 -3.5205 -1.2807 0.4368 1.7053 0.3931 -1.6296 1.0699 3.2772 -5.8083 0.1763 2.9416 -5.3183 1.4218 3.5590 1.8032 -5.0352 -4.5629
4.9312 -0.9160 0.3434 6.5695 -4.0050 -5.0812 5.0698 -4.7562 -6.8687 4.9499 -5.8231 -4.6677 1.4797 -0.3209 4.3948 1.5247 -3.5385 -0.4668 6.1216 -1.7231 -1.6040 0.6085 1.5285 5.4730 3.2415 -1.0976 -3.6969 -1.0081 1.0233 0.2546 -2.8949 0.9139 4.6702 -2.6370 -2.5577 -4.5529 -2.0400 -1.2567 -4.0581 -1.8191 -3.7449 -4.0891 -1.8910 -1.2651 -2.5512 -1.6829 -3.7495 -2.5813 -4.4215 2.8603 2.1332 -5.4125 3.9970 1.9977 4.1353 -3.4745 -5.0026 -0.9570 -2.4780 -0.5923 2.4274 -1.3720 -1.0241 0.4637 1.3894 3.0850 3.9757 -3.2971 -3.5801 -0.1931 -0.9628 1.1386 -1.9117 1.7223 2.7321 -3.3813 4.0331 4.0244 -4.6660 7.7057 2.4255 -3.7932 7.6929 3.4473 -5.2127 6.4576 1.9301 -3.3700 6.4304 4.0226 1.5417 -2.1723 -0.0909 -1.0675 -2.4532 -2.0983 0.1514 -1.5604 -0.1277 -3.9257 2.7648 3.5625 -0.8426 0.7536 2.6574 3.6559 -2.1047 -1.5346 4.9353 -1.5078 -1.0242 0.8350 0.8922 4.4497 3.5984 -2.0783 -3.0502 -0.7088 0.3197 1.2150 -2.8697 1.6990 3.7249 -4.8386 5.2870 2.4775 -3.8489 5.2548 3.5644 5.1771 -4.5099 -5.3809
2.8063 -5.3624 1.3423 5.8593 -1.6481 -3.5855 6.3499 -3.2674 -5.3585 6.8693 -3.8366 -3.0337 2.7336 1.9055 1.5446 -0.0830 -3.1526 -1.9565 4.2744 -3.4738 0.8435 1.7197 2.6466 3.4849 2.7359 -5.5437 -2.4296 -1.4238 1.5668 -0.7621 -1.1847 1.1194 4.1129 -0.3099 0.8646 -6.4066 -0.8689 -0.4241 -5.8407 -0.2067 1.9279 -5.3330 -0.0327 -0.9074 -4.6746 0.6122 1.4392 -4.1565 -4.4715 1.5496 2.7380 -5.8326 1.7068 3.3963 4.5051 -3.7408 -3.8036 0.9190 -0.3288 -2.4656 1.9342 -2.4841 -0.8169 0.5225 2.7733 1.4073 3.9305 -3.5592 -2.4931 0.1829 -0.0075 -0.1685 -1.6992 1.9715 2.0238 -3.5363 3.2644 4.1886 -7.3540 4.6341 5.3057 -6.2714 5.3790 5.5869 -7.2047 3.4017 4.5567 -4.9555 4.9321 5.1721 0.4374 -2.2925 -0.9558 0.0420 0.1530 -3.5954 0.0765 -0.8637 -1.3242 -3.4015 1.8887 3.7473 -0.4339 1.6024 1.4426 2.3599 -3.9309 -0.6948 3.2104 -4.2063 0.4996 1.7004 2.4426 2.2761 3.0189 -4.4442 -1.9592 -0.6520 1.0711 0.0513 -1.9883 1.6161 3.3245 -5.9863 2.9802 4.1691 -4.7872 3.7583 4.5288 5.8839 -3.1208 -3.9286
2.1918 -4.9285 0.2106 2.6246 -6.8833 -4.0913 3.8465 -6.2057 -6.1059 1.6012 -5.3133 -5.7019 2.3020 1.2959 3.3517 0.6076 -1.0878 -2.7873 3.9386 -3.2610 0.5780 0.8183 2.0197 4.9706 4.1684 -2.3155 -2.6437 -0.5703 3.0697 -0.1731 -3.1378 0.9118 2.1125 5.7323 1.0362 -3.3871 5.4289 0.6387 -1.9577 4.5719 0.7129 -4.3051 4.1497 1.2889 -1.4730 3.2913 1.3541 -3.8143 -4.7442 3.7093 2.1000 -6.0200 2.9929 1.7162 3.5380 -4.5751 -4.2990 1.7272 1.5988 -1.9146 2.0781 -1.4020 -0.8905 0.6353 2.8757 2.7392 2.6699 -3.9441 -3.3347 0.5542 1.0664 0.1677 -1.7328 2.7559 2.2753 -4.6998 2.2157 4.1016 -8.8992 2.3326 4.1200 -8.2443 1.8177 5.1746 -8.1588 2.7497 2.9447 -6.7957 1.7261 5.1583 0.7932 -0.7944 -1.4143 2.9964 0.9383 -2.3893 0.7204 0.7060 -1.2166 -3.9204 2.9584 3.1244 -0.4667 2.1026 2.0449 2.2699 -2.8616 -1.2459 2.8618 -3.6430 -0.1168 1.2320 2.0245 3.8169 3.1608 -2.9929 -2.4628 -0.1997 2.1573 0.5594 -2.9116 2.0641 2.4643 -6.8167 2.6546 2.9273 -6.0832 2.1663 4.1002 2.8909 -5.7326 -5.0339
1.1882 -5.5294 0.1414 4.9299 -5.1039 -5.1944 7.2473 -5.0254 -4.3920 5.8284 -3.0376 -4.1829 2.5963 1.3407 2.1982 0.6267 -2.4163 -3.0869 2.1128 -3.6681 1.4294 1.1986 1.9449 3.9377 4.7304 -3.4323 -0.5149 -1.0361 1.9478 -0.9830 -2.7732 0.1337 2.6279 0.7005 3.1075 -5.8560 -0.1791 1.8802 -5.7402 1.0412 3.6685 -4.4907 0.4676 0.8297 -4.8623 1.6735 2.6113 -3.6108 -5.1025 2.0748 2.2063 -6.1188 3.0891 2.6983 5.4276 -5.0493 -2.7518 1.4462 0.3651 -2.6212 2.1092 -2.1778 -1.2156 0.5625 2.4565 1.6816 4.0904 -4.6623 -2.3766 0.3132 0.1286 -0.4696 -1.8116 1.9980 1.6265 -3.9357 2.1597 4.3346 -7.3096 3.7946 6.2460 -6.3031 3.2964 6.9834 -7.2469 3.7237 4.7998 -5.1440 2.7187 6.3300 0.7285 -1.8937 -1.7708 0.7735 1.3991 -3.4928 0.4235 -0.4059 -1.8084 -3.7761 2.3122 2.8975 -0.5109 1.4492 1.3273 2.3866 -3.6578 -1.0584 1.9222 -4.2389 0.2355 1.4559 1.8846 2.7408 3.8647 -3.8996 -1.2481 -0.4723 1.2247 -0.1672 -2.7456 1.3387 2.4012 -6.1750 3.1869 4.1881 -5.0436 2.6818 4.9853 5.8388 -4.5483 -4.1223
3.8879 -5.3768 0.0452 1.9938 -7.1467 -4.0580 1.9360 -6.2577 -6.3423 0.2445 -5.5334 -4.7250 1.6642 4.1208 2.4090 0.9610 -1.4637 -1.3646 5.5834 -3.8138 -0.7595 -0.3035 4.8199 3.4004 3.8295 -2.4473 -3.3406 -0.7527 1.2004 -0.5659 -1.9209 2.1698 4.1611 4.3976 3.8336 -2.8769 4.9349 3.6457 -1.4761 4.0382 2.5304 -3.5598 3.9890 2.7928 -0.6633 4.2610 1.2998 -2.7065 -4.3793 0.3021 2.2886 -5.7649 -0.1910 2.6738 2.6231 -4.7818 -4.5125 2.2755 1.0816 -1.2049 3.2311 -1.8552 -0.6402 -0.3935 3.6432 1.3127 2.3840 -4.2536 -3.1929 0.9906 0.6804 0.8870 -2.0594 1.9464 1.8603 -4.8807 2.5177 3.1405 -8.9843 1.6862 3.4677 -8.5585 2.9587 3.5429 -8.0413 0.6257 3.1708 -7.1499 3.2613 3.3793 1.8758 -1.2737 -0.2988 3.7414 1.4384 -1.2913 2.0243 0.2023 0.0020 -3.9678 1.3954 3.2435 -0.6582 2.1907 1.6343 3.1729 -3.2742 -1.1656 4.2872 -4.1190 -0.6395 0.2987 4.2602 2.4913 3.1989 -3.2661 -2.6779 -0.1758 1.3163 0.5089 -2.5505 1.8725 3.1464 -6.7337 0.9006 3.0093 -6.2463 2.2813 3.1751 1.6966 -5.9200 -4.8886
5.0077 -4.0342 -1.2298 2.7490 -5.4358 -5.1812 0.6827 -5.3235 -6.4914 0.7015 -6.5548 -4.3721 0.2099 4.8342 4.0470 0.6540 -1.1422 -0.9746 3.2886 -5.3878 -0.1349 2.0570 4.0997 2.8696 3.0692 -2.5865 -3.4125 -0.2711 1.8277 -0.3545 -2.2729 1.9504 4.1886 6.1543 2.3509 -2.8636 5.4717 3.2932 -1.8945 6.0392 0.9152 -2.3967 4.0246 2.9027 -1.6819 4.5890 0.5313 -2.1990 -4.7703 3.2651 3.4332 -6.2015 3.3893 2.9464 0.8174 -4.0571 -4.3952 2.4533 1.0994 -1.0984 2.9187 -1.9034 -0.6415 -0.1284 3.8633 1.9053 1.2497 -3.9761 -3.0217 1.3380 0.9943 1.1064 -1.7892 2.0932 1.9203 -4.6986 0.9561 2.6585 -8.8887 0.6924 2.8843 -8.1590 -0.4247 2.7234 -8.2288 1.9807 2.9646 -6.7138 -0.3391 2.6380 1.7530 -1.1192 -0.0780 3.9114 1.4654 -1.2168 2.1944 0.3104 0.1686 -4.0428 2.2511 2.5774 -0.3760 2.3719 1.9945 2.5491 -3.2772 -1.1541 3.5989 -4.2840 -0.8206 0.8456 4.2565 2.9726 2.3512 -3.2290 -2.6517 0.2061 1.7138 0.7707 -2.6183 2.0895 3.0211 -6.8898 2.0664 2.8672 -6.0793 0.8491 2.6948 1.2431 -5.3386 -5.0879
1.7668 -4.3281 1.1831 1.1708 -5.3771 -5.8440 3.3683 -5.1850 -6.9151 2.2174 -3.1611 -6.1544 0.4250 5.1739 0.8655 1.1205 -0.9054 -1.6716 2.6615 -5.8470 -0.4811 0.1650 5.6952 3.0990 4.5033 -3.5155 -2.2907 0.3326 0.2956 2.5790 -3.0188 1.8516 0.9946 4.3341 1.8120 -4.3004 5.1166 0.7271 -3.5883 2.8780 1.8181 -3.8809 4.9561 0.8233 -2.0846 2.7479 1.9313 -2.3770 -3.7608 1.4333 4.3099 -4.9100 0.4520 4.3035 3.1777 -4.7875 -4.5039 3.3175 0.8356 -0.2139 2.8032 -2.1412 -0.4783 0.6804 3.4388 2.4948 2.5548 -4.0583 -3.4262 0.9734 1.0343 0.4778 -1.4839 2.3431 2.6635 -5.0975 2.6817 2.5952 -8.6091 1.3226 4.4555 -8.6950 2.2265 3.4637 -7.3226 0.7446 4.7952 -7.4927 2.6772 2.7865 1.6572 -1.1593 -0.3844 3.4903 0.7948 -1.7115 2.0775 0.1271 0.2956 -3.7923 2.4663 3.2008 -0.3141 2.5082 1.8313 2.3832 -3.4453 -1.1267 2.3800 -4.5817 -0.1507 0.3748 4.8794 2.2072 3.2873 -3.6809 -2.3193 0.3479 1.1562 1.7040 -2.7553 2.1839 2.1454 -6.2148 1.1476 4.1482 -6.2781 2.2076 3.1397 2.4758 -4.6159 -5.8360
1.3851 -5.2567 -0.6310 2.9236 -7.1756 -4.5382 4.7264 -6.6375 -6.1093 2.5600 -5.5141 -6.3327 2.0163 4.3213 2.4739 0.1617 -1.1924 -1.5788 3.2589 -4.1146 0.4421 0.2465 5.0424 3.7763 4.5547 -2.8886 -2.5805 -1.1196 1.5592 -0.0687 -1.7044 2.3237 4.7918 4.4978 1.6477 -4.5690 4.9244 1.6908 -3.1160 3.1058 2.1929 -4.7957 3.7792 1.9131 -2.1516 2.0683 1.4878 -3.9483 -4.1360 0.4002 3.9607 -5.5320 0.1684 3.4053 4.0870 -4.9719 -4.4346 1.4373 1.3209 -1.5688 2.4770 -1.7272 -1.1953 -0.1937 3.8274 1.7580 3.0748 -4.3152 -3.6444 0.9136 0.8732 0.8110 -1.7957 2.1685 2.4640 -4.6019 2.7508 4.3294 -8.7223 2.2269 3.6945 -8.2825 3.3519 4.2836 -7.7912 1.1584 3.3928 -6.8682 3.5250 4.5547 1.2279 -1.0732 -0.6543 2.5572 1.1240 -2.5617 1.5553 0.3831 -0.3846 -3.7528 1.8152 3.6276 -0.4154 2.3686 2.1014 2.3289 -3.1550 -1.6778 2.3865 -4.1591 -0.5699 0.6859 4.4557 2.7937 3.4527 -3.4277 -2.6563 -0.2764 1.5719 0.8244 -2.3034 2.1291 3.7437 -6.4809 1.3009 3.6622 -5.9745 2.5733 4.2167 3.5580 -6.0635 -5.3404
1.1555 -5.9693 0.2638 0.4233 -3.3543 -5.4944 2.4960 -3.7957 -6.7254 2.4654 -2.0501 -5.0110 0.4932 4.9570 0.4279 1.4105 -1.1510 -1.9117 3.0276 -4.8485 1.3545 0.1585 5.7791 2.5566 3.9305 -4.5793 -1.9895 0.5136 0.3276 2.4313 -2.7263 1.9289 0.2510 4.1899 2.5251 -4.0532 4.2642 1.0134 -4.0855 4.7171 3.1033 -2.7598 4.2373 0.3672 -2.7164 3.9895 2.5692 -1.5441 -3.8812 2.9098 3.6045 -5.2971 3.0916 4.1297 2.3557 -4.4646 -4.3718 3.4566 0.4727 -0.3749 2.6053 -2.4534 -0.2875 0.5879 3.4406 2.2892 1.8885 -4.2080 -3.0318 1.1065 0.9476 0.2724 -1.5195 2.2050 2.2005 -4.5241 0.8772 2.4528 -8.1636 0.6138 4.5360 -7.7240 -0.4447 3.8345 -7.3396 1.8017 4.6424 -6.4477 -0.3770 3.1505 1.6198 -1.3304 -0.5222 3.4303 1.1706 -1.7170 2.1231 -0.0523 0.1077 -3.9453 2.1961 2.2760 -0.2560 2.4343 1.5385 2.0428 -3.7986 -0.6961 2.1392 -4.8570 0.3550 0.3687 4.8421 1.7919 2.7486 -4.2525 -1.9522 0.4813 1.1202 1.4942 -2.6813 2.0943 1.4703 -6.1538 1.8697 4.0099 -5.6956 0.7425 3.1811 1.9285 -3.4136 -5.3776
1.9841 -4.2792 1.2167 1.4818 -6.1399 -5.5046 3.4242 -5.5187 -6.8667 1.8596 -3.7818 -6.1392 0.1741 5.1039 0.4777 1.2117 -0.9981 -1.8477 2.9408 -5.8352 -0.3792 -0.0720 5.7186 2.6896 4.6269 -3.5068 -2.3297 0.3450 0.3242 2.4099 -3.1098 1.6342 0.8243 4.3547 3.5589 -2.6922 5.3043 2.6495 -1.9426 2.9219 3.2901 -2.2878 4.9572 1.1917 -2.1680 2.5605 1.8405 -2.5279 -3.7865 1.3410 4.1347 -4.8869 0.3063 4.1849 3.3858 -4.9038 -4.4942 3.2967 0.8535 -0.3382 2.8908 -2.1383 -0.5669 0.5319 3.4616 2.1805 2.7081 -4.2435 -3.4057 0.9184 0.9910 0.2667 -1.5770 2.2887 2.4354 -5.2039 2.4413 2.3880 -8.6205 1.0040 4.3633 -8.7631 1.8534 3.3308 -7.3021 0.5083 4.7112 -7.5941 2.3236 2.6097 1.7095 -1.1970 -0.5365 3.5109 0.8849 -1.8355 2.0558 0.1205 0.1222 -3.8865 2.3420 2.9994 -0.4300 2.4614 1.5739 2.5170 -3.4895 -1.1479 2.5790 -4.5750 -0.1172 0.1587 4.8719 1.8323 3.4228 -3.7462 -2.3343 0.2959 1.1381 1.4924 -2.8476 2.0502 1.9481 -6.2238 0.9366 4.0314 -6.3530 1.9380 2.9713 2.5289 -5.0749 -5.7327
5.5059 -3.4997 -2.9472 3.8728 -7.3861 -2.3968 1.8774 -8.3858 -3.4105 1.6787 -7.2072 -1.2738 2.1522 0.7481 4.1383 0.6618 -1.5778 -1.0004 4.8569 -1.4704 -4.1337 0.3181 1.4735 5.3443 1.6593 -3.2236 -4.2827 -0.2172 2.4436 -0.0114 -2.8507 0.4502 1.3268 3.7437 5.4885 -0.9329 2.3920 4.9295 -1.3267 4.3558 4.7009 0.2075 2.4955 3.4564 -1.6657 4.4315 3.2242 -0.1220 -4.4439 3.2479 1.4528 -5.5364 2.6946 0.5658 2.1091 -5.9447 -3.3982 3.1473 1.2087 -0.7793 2.4863 -1.1748 -2.4441 0.6665 2.3001 3.1210 2.3346 -4.7303 -2.6533 1.1851 0.6874 0.5728 -1.5973 2.1472 2.3024 -4.9606 1.3510 2.9931 -8.9797 1.6743 1.8263 -8.6519 0.8731 2.8549 -7.9354 2.3142 1.0497 -7.2597 0.7097 3.2301 1.9450 -0.9638 -1.0466 3.0641 2.6902 -0.4900 1.7942 0.5173 -0.7305 -3.9459 2.2593 2.4868 -0.2921 1.5331 2.2334 3.2017 -2.5086 -2.5643 4.5210 -2.4298 -3.2654 0.9956 1.4683 4.3227 2.3198 -3.5025 -3.2863 0.2004 1.6298 0.8066 -2.7647 1.4870 1.9753 -6.6455 2.1460 1.3897 -6.2787 1.3602 2.5707 2.3872 -7.2094 -2.6092
5.6563 -4.2096 -1.3769 2.7508 -7.4374 -2.9274 0.9856 -7.6472 -4.6172 0.4300 -6.7977 -2.3856 1.7331 1.8862 4.2447 1.3809 -1.8804 -0.5831 5.9119 -2.4736 -3.0780 -0.4538 2.2438 4.9057 2.8601 -2.7600 -4.3472 0.0183 2.0804 -0.4882 -2.9813 0.4805 2.7153 3.9401 5.2273 -1.6082 2.8860 4.3398 -2.2378 4.1072 4.9390 -0.1302 3.1846 2.8769 -1.9825 4.3689 3.4687 0.1241 -4.8665 1.4075 0.3718 -5.9388 0.4916 0.9164 1.7618 -5.4069 -3.9825 3.5232 1.1579 -0.1959 3.3408 -1.3692 -1.8314 0.1989 2.7403 2.6498 2.2033 -4.4965 -2.9540 1.3296 0.5769 0.6947 -1.7997 2.0636 1.4883 -4.9785 2.6143 2.5542 -9.0340 1.5593 2.8492 -8.5111 2.4382 3.7214 -8.1760 0.9157 1.8742 -7.1031 2.7803 3.6507 2.5943 -1.1388 -0.5309 3.2801 2.6194 -0.4936 2.2613 0.3373 -0.3861 -4.1429 2.1784 1.4518 -0.4663 1.6443 1.8450 3.6532 -2.8331 -2.0659 5.1092 -3.1175 -2.2246 0.4239 2.2581 4.0502 2.8870 -3.3393 -3.2655 0.2884 1.4765 0.5464 -2.9373 1.4532 1.9715 -6.8683 1.2238 1.8179 -6.2988 2.2338 2.7152 1.4876 -6.8061 -3.4657
-0.3672 -2.2353 -0.9213 0.5550 -5.4092 -4.2211 1.9874 -7.3832 -4.4327 2.7483 -5.2423 -5.3459 2.2402 3.9928 1.8948 3.7709 -0.5286 -2.5411 0.8399 -2.8033 1.1251 0.8706 3.7526 3.7426 3.3802 -4.4292 -0.3096 -0.7946 1.4462 -0.8226 -0.6883 0.0765 3.6480 3.4719 5.6914 -1.9686 2.0208 5.3992 -1.6454 4.3777 4.5243 -1.6316 1.5608 4.1053 -2.2846 3.8938 3.2448 -2.2820 -3.4351 -0.6863 1.6991 -4.8449 -1.2201 1.8280 2.6553 -5.6081 -2.8750 1.9756 1.6604 -2.4523 3.1369 -1.4529 -0.4369 -0.0203 3.3441 1.5510 2.6327 -4.2147 -2.5006 1.3828 0.9817 -0.1513 -1.4359 1.3949 1.8958 -3.9015 0.9409 3.4762 -8.0119 0.7569 2.5418 -7.5526 1.7395 3.3353 -7.0877 -0.2253 2.0133 -6.1402 1.8049 3.6683 3.2308 -0.1885 -1.2724 2.4660 2.9656 -1.8712 1.9002 0.5350 -1.4306 -2.9836 -0.0930 3.0168 -0.1284 1.8366 1.4698 2.1447 -2.4611 -0.9800 0.8849 -2.5624 -0.1888 1.0560 3.7039 2.5316 2.7848 -3.8127 -1.1874 0.0772 1.3984 0.0395 -1.5880 0.4655 2.9060 -5.7868 -0.1919 2.3547 -5.2670 0.8745 3.2251 1.9887 -5.8881 -4.2097
1.2455 -5.5394 -1.4120 5.3044 -6.5670 -3.7236 7.5232 -5.6427 -3.2375 6.1076 -4.5567 -4.9172 1.4951 2.6940 3.3198 -0.0790 -2.0729 -3.4315 1.6120 -4.0058 0.4550 2.2969 1.8826 1.3095 4.2082 -2.2856 -1.1081 -2.0002 1.7928 -0.7095 -1.6197 1.7627 4.2438 3.3886 2.7333 -4.4106 3.7521 1.7863 -3.2853 2.0476 2.4331 -5.0490 2.5255 1.3559 -2.5125 1.6238 0.9932 -4.8543 -3.8717 3.9328 3.7111 -5.3263 4.3529 3.5861 5.5401 -4.4212 -2.4853 0.1309 0.8068 -2.8927 1.5153 -1.8322 -1.6383 0.0586 2.7424 1.4275 4.2143 -3.9197 -2.7465 -0.3086 0.2164 -0.5520 -2.1124 1.7719 1.9666 -4.5142 1.7177 4.4504 -8.4635 2.9401 5.2178 -8.0197 1.7767 5.7234 -7.5532 3.8069 4.4964 -6.6477 1.3643 5.4982 0.0815 -1.6650 -2.0847 1.5426 0.6090 -3.3908 -0.3874 -0.2339 -1.9198 -3.7857 2.4521 3.4347 -0.8173 1.5060 1.3847 2.1064 -3.2060 -1.8661 1.6670 -4.2233 -0.8628 1.4007 2.3750 1.9858 3.6126 -3.0767 -1.8352 -1.1352 1.2079 -0.0626 -2.3790 1.9627 3.3050 -6.2757 3.4364 4.2939 -5.8017 2.1240 4.7726 6.0978 -5.2878 -3.5946
3.5005 -1.5126 1.5885 3.4080 -6.1397 -0.4715 4.6376 -6.9972 -2.4105 2.5262 -5.8051 -2.7553 -0.5729 -3.3884 0.8060 1.4702 -1.5316 -2.8740 5.0786 0.0124 0.5133 -1.9807 -2.8704 2.5674 5.3265 -1.7793 -2.2813 1.0048 1.2436 0.7807 -3.0387 1.6632 1.3970 0.5380 1.7400 -6.9167 -0.0401 2.8734 -6.0963 -0.3280 0.5010 -6.8480 -0.4245 2.4668 -4.6881 -0.6707 0.0899 -5.4305 -1.9548 3.3474 3.9282 -2.8624 4.4952 3.5426 4.5708 -4.5686 -2.0192 -0.5942 0.6380 -3.0156 3.0038 0.0080 -1.7431 -0.1428 -1.4197 2.0579 3.7936 -3.4091 -1.6544 0.0152 -0.1214 -0.8151 -1.1508 0.7424 2.3926 -4.0231 1.9588 4.0389 -6.0294 5.3484 5.4862 -6.5944 4.1354 5.6126 -4.7709 5.4894 4.7778 -5.9429 2.9717 5.0444 1.7415 -0.1836 -2.5566 -0.0974 1.0234 -4.3872 0.5251 0.5302 -1.9975 -2.6024 1.9898 3.7482 -0.8116 -0.2363 1.3953 3.4164 -1.1907 -0.9145 4.0518 -0.8340 0.3864 -1.0132 -2.6202 1.8576 4.3116 -2.1309 -1.6893 0.1717 0.4066 0.4498 -2.3348 1.4484 2.3768 -4.1509 4.4039 4.2817 -4.7392 3.0704 4.4449 3.7789 -5.8588 -1.9101
3.0419 -2.5011 -4.9430 3.2895 -3.6616 1.9743 3.1205 -6.1051 1.8852 1.7810 -4.7478 0.3496 0.8235 0.7181 4.3891 3.3083 -0.0601 -0.5398 5.2108 -1.5345 -4.3547 2.2262 -0.5235 3.0348 3.4985 -4.6582 -2.7061 -0.7273 -1.2049 -0.2012 -2.0398 2.5517 2.7860 1.0401 2.4905 -6.6313 2.3784 2.1897 -5.9905 -0.0455 1.6037 -6.0578 2.2993 2.3434 -4.4873 -0.1248 1.7463 -4.5521 -4.7824 0.6577 2.9329 -5.0312 1.3244 4.2681 4.2572 -4.9406 0.0535 1.1334 1.6952 -2.4196 2.4517 -1.6914 -2.0697 -0.1443 -0.6537 2.7023 4.4162 -3.7668 -0.7701 0.7251 0.6059 -0.3075 -2.0020 0.5172 1.6645 -4.6735 2.9176 1.9273 -7.4132 4.2361 4.8388 -7.1783 4.9927 3.7532 -6.6971 2.9881 5.0147 -6.2166 4.5557 2.7586 2.5701 -0.2224 -1.7372 1.2153 1.4583 -3.9083 1.1845 0.3927 -1.6570 -4.0939 1.5838 1.9510 -0.5713 0.3443 1.6482 3.7865 -2.2623 -2.4941 4.0728 -2.1023 -3.9473 1.1042 -0.1574 3.3670 3.8794 -3.6997 -2.0418 -0.2323 -0.1927 0.2827 -2.6088 1.6404 2.1945 -5.8016 2.5859 4.0953 -5.5471 3.3916 2.8944 3.1167 -4.8449 1.0504
3.6696 -6.0007 -2.8121 6.6016 -0.2803 -2.5473 7.8697 -0.4552 -0.4558 5.4632 -0.0092 -0.3713 3.3899 0.5862 2.3152 1.6036 -1.4692 -2.7357 1.9165 -6.0703 -1.1213 1.9102 2.3578 2.4158 4.4633 -3.9640 0.2824 -1.3558 -1.4847 1.1999 -1.9293 2.7380 0.5995 -3.2948 -0.1910 -5.4538 -3.9970 -0.8510 -4.2893 -1.8420 -0.6081 -5.4671 -3.3715 -0.4316 -2.9764 -1.1515 -0.1680 -4.1955 -3.5028 1.8710 3.4814 -4.9260 2.2555 3.1611 6.3230 -2.2583 -1.0584 -1.4786 -2.0003 -2.5053 1.8117 -3.1375 -1.0262 1.0904 0.1111 2.0876 5.0371 -2.6719 -1.5620 -0.2244 -0.8162 -0.7128 -1.0893 1.1335 2.0509 -2.9284 4.1889 2.7185 -6.6113 5.4688 4.2748 -5.7529 6.3789 3.7821 -6.3216 4.0555 4.1315 -4.4950 5.9514 3.1961 0.9218 -2.5296 -2.0865 -1.8697 -0.6072 -2.9385 -0.3734 -2.0414 -1.4659 -2.4524 2.8349 2.9593 -0.0586 0.5640 1.2143 2.9906 -3.8673 -1.6336 2.8297 -5.3449 -1.7743 2.1425 1.1650 2.2600 4.2334 -3.5361 -0.8443 -0.6455 -0.6867 0.5956 -1.8028 2.2699 1.7253 -5.1715 3.6654 3.5563 -4.1654 4.6445 3.1409 6.5440 -0.7593 -1.1152
0.7417 -3.3975 -3.3597 3.8252 -0.8734 -5.6444 6.2300 -0.3998 -5.5995 4.7390 0.7908 -4.0621 2.6506 1.4167 3.9482 3.0844 -1.2917 0.5655 1.9020 -5.3596 -2.4826 1.5937 3.4732 4.0118 4.8223 -3.8308 -1.9091 0.5327 0.6297 -0.4247 -2.1067 2.6040 2.9660 -2.8620 -5.7227 -0.4513 -2.5697 -4.4094 -1.1459 -1.6057 -6.2993 0.1666 -1.9461 -3.4205 -0.1834 -0.9683 -5.3104 1.1189 -2.3408 5.3930 1.6413 -3.4845 5.6650 2.5931 5.2266 -1.6364 -3.7291 -0.1016 -3.0307 1.4342 2.5442 -3.5156 -0.1400 1.7010 2.2656 1.9438 4.1197 -1.8167 -2.8212 0.5285 -0.7285 1.4571 -0.5865 2.5407 1.2049 -3.7378 3.5588 0.6923 -7.1677 5.7869 1.6459 -7.2752 4.7084 0.8510 -5.8833 6.1336 2.2220 -6.0997 3.9168 0.5425 2.2223 -2.3881 0.8203 -0.6836 -3.9926 0.4281 0.7588 -1.9783 0.7668 -2.4016 4.0118 1.0293 0.3473 1.6088 1.7801 2.5354 -3.1056 -1.6005 1.7439 -4.0321 -2.4641 1.9564 2.4716 3.4053 3.9501 -2.9942 -2.1228 0.4703 0.4785 0.7912 -1.7099 2.9827 1.8704 -4.7974 5.3896 1.9481 -4.8887 4.2416 1.0397 4.9908 -0.5339 -4.7440
-0.5537 -2.6873 0.7744 -1.4945 -4.9171 -3.3574 -0.0094 -6.2076 -4.8228 -0.2039 -3.7829 -5.1295 2.5826 3.6719 2.9508 3.0910 -0.7285 -2.5898 1.6612 -3.2874 1.6237 0.8305 3.8240 4.4513 3.0503 -3.7784 -1.4115 -0.3281 2.4096 -0.6458 -1.4021 1.2086 4.0374 6.3402 3.5938 -3.6506 6.1964 3.3722 -2.1588 5.6237 2.5092 -4.4266 4.7395 3.2825 -1.7495 4.1670 2.4302 -4.0225 -4.2154 2.1734 2.8618 -5.5544 1.8879 2.2087 0.9828 -4.7346 -3.1443 2.5428 2.2102 -2.1894 2.6755 -1.1824 -0.2508 0.3580 3.5858 2.1141 1.0104 -3.4634 -2.4666 1.7163 1.5157 -0.0209 -1.2174 1.7766 1.7894 -3.7826 -0.1908 3.1426 -7.7875 -1.1916 2.3444 -6.9886 -2.0931 2.9401 -7.3074 0.1579 2.1225 -5.6189 -1.7411 3.2652 3.0077 -0.1432 -1.3022 4.0153 2.2069 -2.5319 2.0703 1.0443 -1.3391 -3.2879 1.0302 2.5382 0.1803 2.1374 1.7034 1.5147 -2.1042 -0.5743 0.9293 -2.7168 0.6605 1.2555 3.6860 3.3094 1.9639 -3.2132 -1.5009 0.4629 2.0429 0.2208 -1.8714 1.3234 2.9135 -6.0430 0.4932 2.4359 -5.1222 -0.5200 2.9789 -0.1799 -4.8902 -4.1018
5.7352 -0.1005 -1.8478 7.0673 -3.8385 -4.2516 5.9816 -4.9841 -6.1281 5.4907 -5.6956 -3.8355 -0.4074 -1.6499 4.4863 2.1091 -3.2950 -0.5689 3.8062 0.9924 -2.8722 -1.5220 0.1254 5.4581 2.3400 -1.9210 -3.9710 0.2897 0.9850 0.3496 -3.2063 2.0118 3.6464 -1.7033 -4.3384 -4.2271 -2.7048 -3.4900 -3.4758 -1.1058 -5.4226 -3.3560 -2.1226 -2.8485 -2.2331 -0.8793 -4.9966 -1.9208 -1.9238 4.8682 3.4368 -2.2196 6.3327 3.1917 4.6419 -3.5076 -4.7037 -0.5769 -3.1528 -0.3141 2.1846 -0.9940 -1.3063 -0.1202 0.5204 3.5515 4.2637 -3.0709 -3.3829 -0.2158 -1.1771 1.0205 -1.4422 1.9901 2.1365 -4.0713 4.3188 2.3731 -5.6083 7.9508 3.8243 -6.4471 7.0171 3.3439 -4.1767 7.7259 3.7798 -5.9206 5.7762 2.8096 1.6999 -1.9753 -0.2591 -0.8358 -3.4932 -1.7627 0.1849 -1.8533 -0.1891 -2.6481 4.0107 2.4152 -1.0344 0.6203 2.3461 3.5174 -1.3172 -1.9468 4.3054 -0.0839 -2.2551 -0.7767 -0.3302 4.5980 3.2944 -2.1028 -3.2204 -0.2562 0.2010 1.1199 -2.4948 2.5678 2.8158 -3.6866 6.5853 3.2622 -4.5931 5.5381 2.7725 5.7878 -4.4989 -4.7097
5.0985 -3.6110 -3.0334 1.3386 -7.1810 -3.1469 -0.9940 -7.0780 -2.3992 0.8055 -6.6191 -0.8004 2.3873 2.4994 3.8255 1.7812 -1.4556 -0.0721 4.0588 -2.1182 -4.6640 0.4169 2.4825 5.0360 0.8373 -2.3599 -3.5639 -0.1671 2.7375 -0.3157 -2.6388 0.4249 2.5341 6.4963 3.7660 -0.0523 5.4277 3.5902 1.0058 6.5592 2.5550 -0.9583 4.0790 3.3314 0.3691 5.2121 2.2836 -1.5927 -4.8191 2.7354 2.6902 -5.8249 1.7681 3.2735 0.2724 -4.9906 -2.6203 2.8000 1.9722 -1.2485 2.8140 -0.9016 -2.1716 0.3982 3.2368 2.7601 1.4957 -4.2585 -2.4040 1.3393 1.2045 0.5604 -1.7069 2.4556 1.8902 -4.7419 1.2011 0.7206 -8.8207 0.4112 1.3559 -8.2381 0.0106 0.2127 -8.0186 1.0253 2.3964 -6.8208 0.2393 0.0012 2.6137 -0.5050 -0.7206 4.1286 2.1229 -0.5447 1.9351 0.8538 -0.7035 -4.0152 2.1463 1.5508 -0.3080 2.1190 2.0199 2.9707 -2.3853 -2.4247 4.0281 -2.6647 -3.4439 1.0365 2.6899 3.9990 1.6528 -2.9733 -2.8814 0.2585 2.0669 0.6208 -2.7310 1.5436 2.0426 -6.7024 1.2224 2.2041 -6.0677 0.8605 0.9328 0.3732 -6.4540 -2.2394
4.4487 -2.7498 -3.8537 2.4776 -6.8678 -3.0796 0.1371 -7.5523 -3.3577 0.9097 -6.7246 -1.1775 2.1943 3.4172 4.3840 0.8817 -1.0749 -0.1886 2.9461 -1.1860 -4.9794 0.2223 3.0948 5.5491 0.0982 -2.3924 -3.3556 -0.0907 3.1241 0.2776 -2.0233 -0.1294 2.5265 7.0597 1.6273 -1.7330 6.6322 2.1167 -0.3657 6.1183 0.5671 -2.2617 5.1903 2.5777 -0.3568 4.6899 1.0632 -2.2603 -4.4692 1.3662 3.8329 -5.8014 2.0932 3.7768 0.6397 -5.1798 -3.1214 2.8616 2.0588 -0.9507 1.9261 -0.5527 -2.2454 0.1465 3.5270 3.1938 1.3995 -4.1155 -2.5195 1.3834 1.4417 0.8866 -1.6216 2.1581 2.3200 -4.6396 0.7416 1.4999 -8.7219 1.7495 1.3574 -8.1947 0.9867 0.3843 -7.9139 2.1128 2.5051 -6.7999 0.5908 0.4475 1.9676 -0.3440 -0.7453 4.2614 1.4968 -0.8713 1.7682 1.1329 -0.4644 -3.8355 1.4623 2.4682 -0.1888 2.2140 2.5118 2.3707 -1.9391 -2.6611 3.2164 -1.9195 -3.8941 0.8299 3.2954 4.5035 1.1597 -2.8115 -2.9023 0.3438 2.3258 1.1051 -2.4051 1.0307 2.4500 -6.6224 1.7425 2.5745 -6.0065 0.9890 1.4640 1.0541 -6.5643 -2.6736
3.4736 -2.0700 1.0663 -0.3824 -4.5602 1.2402 -1.5079 -6.0376 -0.3618 -1.9898 -3.6348 -0.3912 3.0152 1.0981 2.7342 0.9969 -0.4977 -3.4198 4.8890 -2.7358 -0.8110 1.3753 0.5458 4.2670 2.3447 -3.5200 -2.8891 0.0857 2.8864 -0.3680 -1.6114 -0.4514 2.9304 5.5319 5.0499 -2.6569 5.9530 3.7464 -2.0120 4.4099 4.8917 -3.6627 4.7518 2.9016 -1.6501 4.1700 3.4481 -4.0543 -3.9577 1.6296 2.9799 -5.3474 2.0968 2.5845 0.2246 -4.5078 -1.1733 2.4328 2.6726 -2.4822 3.1697 -0.7747 -2.3653 0.8118 1.9343 2.3985 0.7709 -3.1751 -1.2199 1.6006 1.1685 -0.7211 -1.1877 1.1241 1.2698 -4.2458 -0.4337 1.7368 -8.4258 0.0630 1.6398 -7.8905 -1.1316 1.3355 -7.5661 1.1498 2.0649 -6.4533 -1.3207 1.3934 2.1478 0.1725 -2.9524 3.8932 2.5631 -2.8533 1.7539 1.3714 -2.1327 -3.4178 0.7513 1.8747 0.2588 1.1055 1.2551 2.6529 -1.7229 -1.3005 3.7389 -2.1987 -0.3906 1.7351 1.1032 3.2360 1.9425 -2.9141 -1.9008 0.6043 1.8264 -0.0254 -1.9861 0.3768 2.1097 -6.2321 0.9817 2.1212 -5.6288 -0.3070 1.7305 -0.9041 -4.6644 -0.1741
0.6295 -2.8218 -4.7725 4.9978 -4.3152 1.2003 3.2328 -5.5409 2.3799 2.8448 -3.2149 1.7126 2.3499 1.7657 3.2964 2.9661 0.0433 -1.5361 3.0351 -3.1981 -4.9843 1.4314 -0.2391 3.9813 0.9852 -4.5847 -2.0386 -1.4782 1.5050 -0.4691 -1.7307 3.4586 2.8788 4.5606 2.3981 -4.3911 3.6425 1.9115 -5.4891 3.9091 3.5478 -3.6566 2.3316 1.4260 -4.9167 2.6185 3.0981 -3.0121 -3.4725 0.9758 4.1416 -4.7367 0.1381 4.1241 2.9366 -5.0371 -0.0000 0.4817 1.8141 -3.3057 1.2928 -1.5410 -2.1802 1.0746 0.4903 1.7263 3.0521 -4.1079 -1.0971 0.7888 1.5480 -0.8857 -1.1429 1.3187 2.1706 -4.4441 2.6188 2.6596 -8.3134 1.0676 3.2258 -8.1637 2.2983 2.7070 -7.1538 0.3405 3.6999 -6.8373 2.8662 2.5520 1.8523 -0.1537 -2.3879 1.6771 2.4339 -3.9949 0.7640 0.8731 -2.1543 -3.3555 1.6713 2.8059 0.0587 1.5760 1.4105 2.2000 -2.6164 -2.7428 2.0004 -2.8897 -4.1977 1.6130 0.6187 3.1233 1.9863 -3.8807 -1.9450 -0.3190 1.5128 -0.0601 -2.0092 2.2945 2.6250 -5.9230 0.8697 3.5794 -5.7370 2.1739 2.9125 3.5032 -4.5132 1.3047
3.2715 -4.8130 -0.8140 -0.7541 -6.2202 -3.1298 -1.7864 -5.2105 -5.1112 -2.3844 -4.3778 -2.8862 1.9664 4.5534 2.7069 2.3069 -1.7034 1.4948 4.5005 -3.0947 -2.0459 -0.2139 5.1192 3.2290 1.6822 -1.7445 -3.4792 0.7084 1.3547 -0.4765 -2.1943 1.2236 3.1936 5.8066 4.2982 -1.3837 4.8962 4.2901 -0.1731 6.6575 3.0529 -1.5088 5.1520 3.1285 0.7628 5.8417 1.8006 -1.2810 -4.5591 2.2696 1.3251 -5.8224 1.9315 2.0863 -0.1222 -3.9250 -3.8574 3.6954 1.3582 -0.1858 2.4644 -1.1577 -0.8432 0.2251 3.8175 1.2663 0.3905 -3.4517 -2.5964 1.9234 1.0275 1.4781 -1.3742 2.0130 1.1647 -4.0581 -0.1804 1.5360 -8.1804 -0.9682 1.3738 -7.3116 -1.9936 1.3393 -7.6918 0.3822 1.5804 -5.8845 -1.7407 1.4347 3.0564 -0.9775 0.5359 5.1205 1.7895 0.0530 3.1530 0.4897 0.9312 -3.5566 1.1413 1.2061 -0.0377 2.3609 1.5890 2.1759 -2.5822 -1.2660 3.3788 -3.4570 -1.4169 0.6051 4.5555 2.5120 1.4193 -2.5329 -2.5741 0.8801 1.5305 0.7261 -2.3168 1.4437 1.9944 -6.3706 0.6083 1.6877 -5.4071 -0.4844 1.5485 -1.2522 -4.9250 -3.7264
-0.2914 -4.8808 -2.8641 2.8697 -4.8903 -6.9483 5.2819 -4.4734 -6.8122 3.7269 -2.5836 -6.7355 1.2409 4.9085 1.1083 2.0917 -0.3021 -2.0329 1.2922 -5.3614 -1.0655 0.5224 5.5911 3.1924 3.8574 -3.2034 -2.1011 -0.5879 0.3574 2.3438 -2.8631 2.4836 -0.0061 6.0564 -2.5651 1.2895 4.6418 -3.0559 1.5219 6.1212 -1.5845 0.1364 3.6888 -1.8952 1.7257 5.1583 -0.4340 0.3438 -4.1928 4.1368 3.0087 -5.5861 4.6660 3.3142 3.9038 -4.1827 -4.8046 2.7747 0.1845 0.6665 1.4661 -2.3565 -0.9323 0.4214 3.2642 2.6486 2.8251 -3.4774 -4.1558 0.4816 0.9368 0.3680 -1.9031 2.7953 2.0747 -5.1239 2.1747 1.9376 -8.9751 2.9213 3.4344 -8.6953 1.7235 2.8930 -7.9255 3.9114 3.5806 -7.3571 1.4421 2.4111 1.2068 -0.8739 -1.0849 3.7538 -0.9575 0.5404 1.3612 -0.2020 0.2696 -4.2451 3.3135 1.7426 -0.5331 2.6698 1.6366 1.4410 -3.1473 -2.2245 0.8557 -4.5056 -1.9958 0.7056 4.7098 2.3586 2.8423 -3.2883 -2.7875 -0.2349 1.1954 1.5198 -2.9421 2.8306 1.1717 -6.6783 3.6540 3.1438 -6.3826 2.3718 2.4808 3.9287 -4.0207 -6.3119
-1.3904 -0.9911 -3.0087 -1.0398 -5.5745 -2.2157 -0.1525 -7.2576 -0.6714 1.1550 -6.6159 -2.6461 2.4938 3.8204 3.6268 3.3429 -1.0327 -0.6755 0.2369 -1.8836 -4.6027 0.5225 3.4438 4.7732 -0.2384 -2.4482 -0.3678 0.2837 2.5385 -0.5109 -0.9532 -0.2157 2.8576 6.6014 4.6566 -1.6651 5.5370 5.2036 -0.7398 6.0500 4.3436 -3.0388 4.2830 4.3546 -0.6914 4.7622 3.5469 -3.0083 -3.7936 0.6180 3.3688 -5.2859 0.6440 3.1034 0.9020 -5.0446 -0.7268 2.9913 2.4774 -1.6643 1.2342 -0.3131 -1.5853 0.4809 3.6020 2.3797 1.2489 -3.8545 -1.4642 2.1434 1.5438 0.4689 -1.0575 1.8365 1.7692 -3.4085 -0.5425 1.2653 -7.3958 -1.8876 1.2028 -6.4929 -2.4431 0.3772 -6.9865 -0.8472 2.1244 -5.1156 -1.9889 0.3975 2.7044 -0.0028 -1.4125 4.3385 3.1537 -1.6111 2.9551 1.3123 -0.7057 -3.0593 0.6328 2.0461 0.3400 2.1809 1.8762 0.9929 -1.6342 -2.2804 -0.0434 -1.5250 -3.3473 1.1405 3.5959 3.7258 0.5731 -2.6678 -1.2620 0.8869 2.1184 0.4718 -1.5784 0.6640 2.2767 -5.7122 -0.4168 2.1416 -4.7186 -0.9968 1.2215 0.2222 -6.1036 -1.5732
1.9505 0.0923 -5.1336 0.6010 -5.6683 -2.8609 -1.8176 -5.7258 -2.4701 -0.3753 -4.5268 -0.8975 1.5325 3.7662 3.0076 2.3582 -2.4438 -0.6319 1.3220 1.7389 -3.4468 0.2801 3.7685 4.9418 -0.9335 -0.8080 -2.7106 0.5846 -1.0565 2.3051 -1.2084 1.3316 -0.1137 6.5025 2.6024 -0.9826 6.9757 1.1978 -1.2889 6.3443 2.8417 0.5031 6.2070 0.1215 -0.5501 5.5531 1.7623 1.2114 -3.8764 2.0102 2.3043 -5.3578 2.2728 2.0782 -0.7880 -3.6216 -3.1917 4.4619 -0.4485 1.1092 1.6929 -0.2500 -1.3237 0.5726 1.6980 3.7816 0.3271 -2.7070 -3.1597 2.1526 0.3542 1.3298 -1.1733 1.0968 2.1856 -3.9169 0.1714 0.7248 -8.1145 0.0998 0.5938 -7.4186 -0.9296 0.0826 -7.4192 1.1731 1.2771 -5.9713 -0.9383 0.1691 2.7551 -1.0794 -0.6347 5.0695 0.6664 0.2873 3.0000 -0.6868 0.8089 -3.2839 1.4381 1.0400 0.2423 1.3373 2.3500 1.4797 -0.6653 -2.7632 1.5570 0.4575 -3.7460 0.7501 3.1789 3.9729 0.1462 -1.3668 -2.8778 0.9809 0.0656 2.0059 -1.7909 1.2924 0.9698 -6.0760 1.1695 1.3640 -5.3004 0.0860 0.7352 -0.5775 -4.8686 -2.3554
2.9745 -4.1813 -1.9288 -0.6801 -4.2284 -5.7941 -1.1011 -2.1322 -6.9956 -2.2230 -2.5418 -4.8593 1.6868 4.7453 1.6310 1.2525 -2.4491 1.3863 4.0542 -2.0256 -2.3452 -0.1446 5.5335 2.8001 1.1248 -0.1778 -2.9982 0.0110 0.1463 3.0848 -1.6232 1.9209 -0.4636 7.7237 -2.3269 2.1627 6.5860 -2.8017 3.0404 7.2114 -1.9234 0.7973 5.5197 -1.7327 3.1692 6.1403 -0.8596 0.9139 -4.0950 3.4771 0.6629 -5.5231 3.5417 1.1698 0.2505 -2.0902 -4.9559 4.0388 -0.1540 1.9633 1.8530 -1.0373 -0.4536 0.4749 3.2278 3.0123 0.3122 -2.2761 -3.5284 1.7997 0.6546 1.6990 -1.3499 2.1519 1.8438 -4.2636 1.0740 0.3419 -8.4280 1.1026 0.8441 -7.8388 0.0319 0.2843 -7.6477 2.2894 1.1314 -6.4075 0.0318 0.0547 2.2850 -1.6205 0.8762 5.0026 -1.3067 1.8106 2.5793 -0.5450 1.9118 -3.5197 2.1252 1.0069 0.0842 2.2629 1.9093 1.6760 -2.0476 -1.5678 2.9553 -2.6955 -1.9869 0.6094 4.6221 2.4764 1.0257 -1.3786 -2.7597 0.5896 0.8988 2.3083 -2.0681 2.0471 0.6701 -6.3222 2.3062 0.8952 -5.6485 1.0907 0.4045 -0.9373 -2.7499 -5.6251
2.8369 -1.8496 -4.7622 -1.1223 -5.3166 -1.4140 -3.3810 -4.4107 -1.6865 -1.8318 -3.3335 -0.1202 0.8334 4.1718 2.5848 2.6591 -2.4530 -0.0442 2.6013 0.4811 -4.0727 0.4233 3.9858 4.8389 -0.4525 -0.4800 -2.8738 0.9521 -0.8000 2.4566 -1.2264 1.9639 -0.3278 5.7155 3.0400 1.8181 6.9682 2.3967 1.2660 4.7619 3.4396 0.7166 6.7080 1.3782 0.1723 4.4141 2.3022 -0.2208 -4.0640 2.0669 1.0145 -5.4037 1.4643 1.4030 -1.4836 -3.1398 -2.5848 4.7461 0.1451 1.0648 2.1183 -0.4815 -1.3049 0.4587 1.9795 3.5483 -0.1005 -2.7424 -2.4794 2.3501 0.5881 1.2293 -0.9774 1.0909 1.8219 -3.4821 0.0982 -0.2714 -7.3883 -1.4273 -0.0787 -6.5260 -1.9309 -0.9781 -7.0079 -0.2817 0.7236 -5.1927 -1.3733 -1.0956 3.1202 -1.1543 -0.3892 5.2456 1.0478 -0.0460 3.3463 -0.3971 0.9034 -3.0755 0.9432 0.8332 0.3660 1.5212 2.1093 1.7910 -1.3100 -2.5261 2.3970 -0.8102 -3.7941 0.5562 3.4703 3.7313 0.2923 -1.4315 -2.6608 1.2243 0.2909 1.9661 -1.6680 1.4116 0.6713 -5.7778 0.2509 0.6085 -4.7899 -0.3627 -0.2989 -1.9342 -4.0421 -1.4518
4.4806 0.4141 -3.7065 0.5568 -3.0692 -5.9891 -1.7671 -2.3032 -6.0595 -0.9107 -3.3294 -4.0107 1.2013 1.9387 4.9806 1.2315 -2.6234 -0.9609 3.9111 1.7112 -1.7240 -0.9271 2.0620 5.8613 0.6936 1.0138 -2.8845 -0.8583 -0.7643 1.1624 0.2144 3.4501 0.9692 4.0346 -4.8215 4.8410 3.0664 -3.6730 5.0255 4.5227 -4.9017 3.4108 1.9024 -3.7696 4.0619 3.3688 -5.0010 2.4346 -1.9683 4.2555 -0.6562 -2.9478 4.2698 -1.8164 -0.1514 -1.0524 -4.6958 2.8406 -2.5855 2.0609 2.1740 -0.4302 -0.7550 -0.5422 0.6221 3.9893 1.0471 -1.0514 -3.8914 1.3626 -0.6840 1.8355 -1.1031 1.8401 1.9676 -3.1702 2.4388 0.3901 -6.6092 3.2210 -1.8994 -6.6778 2.3673 -0.8638 -5.3459 3.8505 -2.2319 -5.5031 2.1190 -0.0511 2.1613 -1.8465 -0.2176 2.3464 -3.9002 2.6197 1.7498 -1.9389 1.2418 -1.8597 2.8509 -0.0935 -0.0927 1.0271 2.6000 2.5740 -0.3491 -2.2123 3.6542 0.6474 -2.4915 -0.1364 1.6272 5.0294 1.3428 -0.0180 -3.0248 0.0572 -0.2332 1.7837 -0.8162 2.7800 1.0003 -4.2455 3.6000 -1.4987 -4.3128 2.6754 -0.3559 -0.5488 -2.4361 -5.1751
3.6722 -3.9429 -2.4557 -0.8402 -4.4124 -5.1058 -1.4145 -2.7743 -6.8366 -2.3637 -2.5360 -4.5895 2.1630 4.5440 1.9229 0.6094 -2.3261 0.6987 4.4810 -1.6426 -2.5949 -0.0716 5.0983 1.7322 1.5772 -0.1885 -3.3930 0.1774 0.0835 3.4897 -1.6229 2.8697 -0.0943 6.8718 -1.4611 4.7609 6.5526 -0.2320 3.9357 5.9592 -2.6365 4.4720 5.0606 -0.0040 3.8257 5.1617 -2.4502 3.1991 -4.3468 3.0946 1.2719 -5.8052 2.6960 1.3504 0.0591 -2.0882 -4.9957 3.7939 -0.8610 1.8860 2.1171 -1.1192 -0.7180 0.5542 3.1277 2.9549 0.4219 -2.1867 -3.6027 1.6795 0.2987 1.7283 -1.3453 1.9293 2.0123 -3.9163 1.1775 -0.1838 -7.8949 1.3582 -1.5350 -7.0084 0.5782 -2.1774 -7.4916 2.0749 -0.3415 -5.6420 0.4895 -1.7000 1.9473 -1.8692 0.5867 4.3110 -1.1977 3.2648 2.2900 -1.0130 1.7964 -3.4993 1.8606 1.0331 0.0918 2.0170 2.0364 2.1024 -2.0350 -1.9229 3.4627 -2.4744 -2.3550 0.8182 4.3573 2.1355 1.3739 -1.3521 -3.0567 0.6217 0.6924 2.5220 -2.0647 2.2778 0.8855 -6.2321 1.9704 0.1198 -5.2388 1.1593 -0.6003 -1.1326 -2.9518 -5.3624
4.3808 -4.2011 -1.6245 -1.0147 -1.7388 -5.1818 -1.1186 0.6929 -5.4757 -1.0678 -0.2433 -3.2126 2.2140 3.4629 3.3040 0.5295 -2.0262 -0.4162 5.0931 -2.6100 -3.3206 0.1043 4.3002 3.7430 3.2969 0.0264 -3.0276 -0.7228 -0.7273 2.3178 -0.3098 2.9496 -0.4061 2.8232 -4.6390 6.1041 3.6240 -4.7822 4.8269 2.1930 -3.2654 6.2006 2.7641 -4.4923 3.6150 1.3378 -2.9742 4.9852 -3.1308 4.1034 0.3016 -4.6463 4.1156 0.2049 0.9651 -0.3066 -4.6630 1.2517 -2.8748 2.5181 2.8848 -1.6511 -0.6853 0.3935 1.9372 3.4817 1.6303 -1.3340 -3.9010 1.5366 -0.5142 1.8081 -1.0279 1.8515 1.5201 -2.9941 2.2676 -1.2745 -6.9240 2.9403 -2.6118 -6.1020 2.1571 -3.3307 -6.4301 3.6019 -1.4206 -4.7351 1.9472 -2.8952 1.8036 -2.3303 0.1258 2.1444 -3.1140 3.7111 1.8969 -1.8928 1.5713 -2.6580 2.6876 0.0722 0.2574 1.4654 2.0475 2.9362 -2.1784 -2.1029 4.1992 -2.9297 -2.3791 0.8600 3.3613 3.5177 2.6721 -1.0297 -3.0498 0.2642 -0.0437 2.0644 -1.1940 2.5281 0.3291 -5.1632 3.4107 -1.0102 -4.2712 2.5070 -1.7595 -0.5465 -0.4148 -4.6215
3.2127 0.3397 -4.3062 0.7348 -3.6673 -6.4899 -1.5803 -4.3404 -6.0305 0.2115 -5.0751 -4.5281 2.0308 3.6694 3.8200 1.7887 -2.6160 -0.2198 1.4748 1.6705 -3.2147 0.0266 3.8960 4.9455 -0.5942 -0.8441 -2.3786 -0.1544 -0.6628 1.9763 -1.1547 3.5138 0.5511 5.9080 -3.4511 4.8169 4.7267 -2.5859 5.2078 5.7208 -4.0376 3.4320 4.4792 -1.5030 4.1773 5.4639 -2.9510 2.4070 -4.0548 2.3464 1.7876 -5.3744 1.6941 1.4294 -0.5155 -2.6755 -4.5818 4.0491 -1.0148 1.7853 1.8427 -0.3562 -0.9979 0.5334 1.8118 3.8846 0.5907 -2.3054 -3.7340 1.9692 0.2241 1.6602 -1.1691 1.8399 2.1616 -3.4732 2.5349 -0.5596 -7.5511 2.4198 -1.6056 -6.6445 2.8310 -2.5083 -7.1202 2.0295 -0.2791 -5.2376 2.8741 -2.1567 2.5261 -1.4026 -0.1449 4.2683 -2.1090 2.8044 2.6117 -1.0227 1.3240 -3.0353 1.9965 0.7209 0.2473 1.6917 2.4009 1.8174 -0.6966 -2.4709 2.1132 0.4995 -3.3171 0.8052 3.2358 4.2656 0.4639 -1.2569 -2.8455 0.6267 0.2846 1.9916 -1.6883 2.5545 1.0977 -5.8167 2.0606 0.0506 -4.8087 2.4877 -0.9365 -0.2710 -3.9321 -5.3927
2.9816 1.0682 -3.4961 -1.7791 -4.6325 -2.3053 -3.8464 -3.3157 -2.3804 -2.1853 -2.8567 -0.6353 -0.6504 3.7136 3.9658 2.5033 -2.2922 0.0217 3.0242 -1.1307 -4.5635 0.9971 2.8156 5.3103 -0.2650 0.2121 -3.2093 0.5819 -0.9658 2.1175 -1.0357 2.5693 -0.1579 7.9744 -1.0571 -0.7822 8.1373 -0.5225 0.6214 7.1430 -0.1301 -1.6387 6.8175 -0.2583 1.3137 5.9171 0.4121 -0.9383 -3.9179 2.5624 -0.4769 -5.3886 2.6266 -0.0835 -1.7355 -2.2410 -3.0122 4.4874 0.4989 1.0528 1.8911 -0.2753 -1.1320 -0.2019 1.3693 3.8253 -0.3225 -2.0717 -2.7846 2.1231 0.6435 1.4640 -1.1897 1.1110 1.6413 -3.6666 0.4359 0.6274 -7.8076 -0.0801 1.0892 -6.9774 -1.0919 1.3938 -7.2719 1.1714 0.5894 -5.5486 -0.9373 1.2045 2.9142 -0.9650 -0.2597 5.6193 -0.2510 0.3895 3.1788 -0.2583 1.0605 -3.1919 1.8090 0.6087 0.0475 1.3813 2.3312 1.7323 -0.9381 -2.4805 2.6004 -0.3688 -3.5514 0.1417 2.6945 4.4392 0.2813 -0.8349 -2.8783 0.9212 0.2055 1.9798 -1.6936 1.8764 0.6094 -5.9454 1.3308 0.4297 -5.0284 0.2251 0.7617 -2.3663 -3.2576 -2.0818
2.8405 -4.2974 -2.0503 -1.1944 -4.1467 -5.4589 -1.8553 -2.0684 -6.5800 -2.6540 -2.5163 -4.3078 1.8920 4.7101 1.1086 1.2756 -2.6617 1.4736 3.9163 -2.1177 -2.3025 0.6045 5.6808 2.7577 0.9562 -0.2731 -2.8035 -0.4014 0.2313 2.2903 -1.2133 2.9132 -1.1035 6.7629 0.1895 4.7406 5.4868 0.3733 5.5331 6.6747 -0.9067 3.6989 4.2813 0.4143 4.6204 5.3882 -1.7021 3.7705 -4.0756 2.4534 0.9520 -5.0671 1.3508 1.2830 -0.2479 -1.9679 -4.7326 3.8307 -0.4172 2.3313 1.7446 -1.1856 -0.3558 0.6710 3.2948 2.6149 0.1243 -2.3485 -3.3919 1.7868 0.6478 1.6337 -1.1762 2.6348 1.2017 -3.6598 1.5256 -1.2397 -7.1656 -0.8012 -1.0511 -6.5518 -0.6214 -2.2329 -6.6534 -0.1459 0.1348 -5.3612 0.2032 -2.3172 2.2103 -1.7160 0.9808 4.1553 -0.8214 3.7509 2.3638 -0.6196 2.0277 -3.0482 1.8352 0.0359 0.2257 2.4239 1.4583 1.5563 -2.1974 -1.4668 2.8321 -2.8137 -1.9468 1.0228 4.6865 2.1727 0.8718 -1.4853 -2.6175 0.4626 0.9817 1.8494 -1.7372 2.5463 -0.0592 -5.5533 0.6249 0.0651 -4.8396 0.7885 -1.2196 -1.4819 -2.6786 -5.2484

>  <OB_ATOM_TYPES> (1ivqB1)
C.3 C.3 C.3 C.3 N.am O.3 C.2 O.2 O.2 O.2 O.2 C.3 C.3 C.3 C.3 C.3 C.3 C.3 C.3 C.3 C.3 C.3 N.am N.am N.am N.pl3 C.ar C.ar C.ar C.ar C.3 C.3 C.3 C.3 C.3 C.3 C.2 C.2 C.2 C.2 C.2 C.ar C.ar C.3

>  <ENSEMBLE_RMSD> (1ivqB1)
0.000 2.420 2.862 2.883 2.920 2.941 3.015 3.084 3.092 3.186 3.203 3.232 3.328 3.328 3.420 3.426 3.461 3.513 3.518 3.520 3.548 3.557 3.565 3.569 3.589 3.590 3.597 3.675 3.716 3.756 3.796 3.833 3.929 3.982 4.057 4.123 4.145 4.151 4.154 4.154 4.614 4.633 4.732 4.755 4.822 4.849 4.877 4.914 4.921 5.018

$$$$
