
 OpenBabel03071213D

  9  8  0  0  0  0  0  0  0  0999 V2000
   36.5720   28.3860   69.5370 N   0  0  0  0  0
   31.6610   30.0560   67.9460 N   0  0  0  0  0
   30.9390   28.4620   69.7170 O   0  0  0  0  0
   31.1990   26.7110   68.5430 O   0  0  0  0  0
   35.5940   27.9370   68.5380 C   0  0  0  0  0
   34.3690   28.8510   68.5040 C   0  0  0  0  0
   33.4100   28.4100   67.3660 C   0  0  0  0  0
   31.8960   28.7210   67.5140 C   0  0  0  0  0
   31.2990   27.9130   68.6750 C   0  0  0  0  0
  1  5  1  0  0  0
  2  8  1  0  0  0
  3  9  1  0  0  0
  4  9  2  0  0  0
  5  6  1  0  0  0
  6  7  1  0  0  0
  7  8  1  0  0  0
  8  9  1  0  0  0
M  END
>  <MOLID> (1lahA1)
1lahA1

>  <SMILES_CANONICAL> (1lahA1)
N[C@H](C(=O)O)CCCN	

>  <FINGERPRINT> (1lahA1)
0000000000000001000000000000000000000001000000000000000000000000000000000000000000000000000000000000000000000000000001000000000000000000000010000000000000000000000000000000000000000000000000000000000000000000000000000000000000000000000000000000000000000000000000000000000000000000000000000000000000000000000000001000000000000000000000000000000000000000010000000000001100110000000000000000010000000000100000000001000000000001000000000000000000000000000000000000000000000000000000000000000000001000000000000000100000000000000000000000000000000000000000000000000000000000000000000000000001000000000000000000000000000000000000000000000000000001000000000000000000000000000000000001000000000000000010100000000000000011000000000000000000000000000000000000000000000000000100000000000000000000000000000000000000000000000000000000000000000000000000000000000000000000000000000000000000000000000000000000000000000000000000000000000000000000000000000000010000000000000000000000000000000000000000000000000000000000000000000000000000000000

>  <MACCS166> (1lahA1)
000000000000000000000000000000000000000000000000000001000000000000000000000000000101000001100010000100010000001000000100001000000010000101110100011000101111111010010000

>  <OB_MW> (1lahA1)
132.09

>  <OB_logP> (1lahA1)
0.5378

>  <OB_PSA> (1lahA1)
89.34

>  <OB_MR> (1lahA1)
33.3356

>  <OB_ATOMIC_CHARGES> (1lahA1)
-0.1313865519 -0.1208205191 -0.2440508613 -0.2440508613 0.1093678135 0.0225659537 0.0321397741 0.1943758821 0.3818593703

>  <MCT_HBD> (1lahA1)
3

>  <MCT_HBA> (1lahA1)
4

>  <ENSEMBLE_TOTAL> (1lahA1)
50

>  <ENSEMBLE_COORDS> (1lahA1)
3.6542 0.1522 0.2795 -1.2810 1.6457 -0.7861 -1.5127 -0.1759 1.3595 -2.4553 -1.4843 -0.2447 2.3868 -0.3605 0.7672 1.2840 0.5681 0.3189 0.5611 -0.0261 -0.8695 -0.9244 0.2466 -0.9027 -1.7128 -0.5659 0.0779
3.0830 0.0564 1.2383 -1.6307 1.5371 -1.0353 -1.5582 0.0229 1.4527 -2.2233 -1.5336 -0.0678 2.8712 -0.0731 -0.1928 1.4479 -0.5048 -0.4535 0.5129 0.6775 -0.3392 -0.8756 0.3173 -0.8069 -1.6273 -0.4999 0.2045
2.5273 -0.7883 1.1545 -1.5274 1.5372 -0.9052 -1.0586 -0.0140 1.4299 -2.0662 -1.6179 0.1766 2.6569 0.1926 0.0913 1.3305 0.8882 -0.0971 0.5272 0.1786 -1.1652 -0.9653 0.2024 -0.9395 -1.4243 -0.5787 0.2547
3.9714 0.3276 0.4732 -1.2028 1.4094 -1.0863 -2.4945 -0.2545 1.3930 -2.3400 -1.3092 -0.6215 2.7184 -0.4024 0.4097 1.6767 0.4981 -0.2036 0.4192 -0.2872 -0.4932 -0.8012 0.4824 -0.0408 -1.9470 -0.4642 0.1694
3.5854 0.5807 0.8379 -1.0937 1.5494 -0.6905 -2.0684 -0.2197 1.3804 -2.7591 -1.2612 -0.5217 2.9301 -0.3830 -0.0285 1.6982 0.2525 -0.6258 0.4750 -0.1169 0.1826 -0.7966 0.1291 -0.5985 -1.9708 -0.5309 0.0640
3.2213 1.0425 0.6126 -0.7349 1.6428 -0.4244 -1.5593 -0.3573 1.3746 -2.8150 -1.0495 -0.3896 2.7678 -0.2243 0.0668 1.3048 -0.3879 0.3944 0.4948 -0.4650 -0.8798 -0.8353 0.2482 -0.8078 -1.8443 -0.4496 0.0533
3.4839 0.0324 0.5262 -1.3165 1.0043 -1.6473 -2.2195 -0.1888 1.4362 -1.4613 -1.5167 -0.2532 2.2301 -0.6986 0.4724 1.3458 -0.0862 -0.5879 0.4904 1.0024 0.0229 -0.9908 0.8694 -0.2410 -1.5621 -0.4181 0.2716
3.4476 -0.1263 0.5839 -1.3578 0.9359 -1.6852 -2.1742 -0.1772 1.4471 -1.3410 -1.5313 -0.1854 2.1079 -0.6777 0.4908 1.3659 0.0243 -0.6214 0.4671 1.0948 -0.0421 -1.0094 0.8761 -0.2789 -1.5060 -0.4186 0.2912
3.1805 -0.4488 0.7230 -1.2434 1.5581 -0.8013 -0.7804 -0.8618 1.2317 -2.7672 -0.9352 0.1358 2.0125 0.3903 0.9187 1.5088 0.8752 -0.4201 0.5797 -0.1391 -1.0535 -0.8982 0.1555 -0.9168 -1.5923 -0.5942 0.1825
2.5061 -1.1170 0.9933 -1.9646 1.2340 -1.1731 -1.3617 0.2131 1.4258 -1.4315 -1.7285 0.2446 2.3890 0.2503 0.5194 1.6091 0.2412 -0.7729 0.3824 1.1102 -0.6273 -0.8721 0.3150 -0.8998 -1.2567 -0.5183 0.2899
2.8992 -1.0013 0.1445 -1.7453 0.8615 -1.6293 -1.7991 -0.0430 1.5217 -1.1918 -1.5869 -0.0425 1.9562 -0.2247 0.9294 1.5290 0.9998 0.1518 0.5413 0.6299 -0.9327 -0.8846 0.7892 -0.4602 -1.3048 -0.4245 0.3172
2.2521 -0.2356 1.3471 -1.2422 1.5114 -0.9234 -1.3860 -0.4112 1.7287 -2.2277 -1.2107 -0.2330 2.3032 0.6606 0.2053 1.8749 -0.0765 -1.0422 0.3812 -0.2529 -1.2268 -0.4847 0.4840 -0.2315 -1.4708 -0.4691 0.3757
3.4167 -0.2270 0.9337 -1.2564 1.8427 -0.3588 -2.6148 -1.1506 -0.1764 -1.0790 -0.5636 1.4036 2.3650 -0.6314 0.0215 1.3960 0.5153 -0.1219 0.3763 0.1863 -1.1903 -1.0549 0.4725 -0.7932 -1.5489 -0.4441 0.2819
3.5601 0.1084 0.5417 -0.8975 0.8743 -1.6307 -2.6716 0.0004 1.1394 -1.6190 -1.5311 -0.1798 2.5747 -0.1719 -0.4875 1.2512 -0.4835 0.1677 0.4695 0.7904 0.4057 -0.9220 0.7986 -0.1826 -1.7455 -0.3856 0.2261
3.9198 0.6160 -0.0447 -0.7151 1.2202 -1.0562 -2.9631 0.0112 0.9482 -2.2228 -1.3220 -0.7462 2.7897 -0.2797 -0.2009 1.6485 0.2330 0.6432 0.3882 -0.5027 0.2560 -0.8003 0.4271 0.1604 -2.0448 -0.4031 0.0402
3.2861 -1.0000 0.4930 -1.2352 0.6732 -1.7731 -2.5596 -0.0613 1.2231 -1.2300 -1.5584 0.1347 2.6751 0.3022 0.3000 1.3683 0.1080 -0.4271 0.3597 1.1256 0.0561 -1.0676 0.8206 -0.3397 -1.5967 -0.4100 0.3331
3.5175 0.5728 0.7848 -0.7703 1.4214 -0.7445 -2.0825 -0.2496 1.3786 -2.8854 -0.9524 -0.6306 2.6596 0.5880 -0.3867 1.7443 -0.6130 -0.3431 0.4777 -0.2952 0.4195 -0.6712 -0.0115 -0.5208 -1.9898 -0.4605 0.0428
3.3592 -0.7964 -0.1587 -1.6148 1.5001 -1.1274 -2.8287 -0.5337 -0.0472 -0.9622 -1.3797 0.9154 2.2706 -0.4393 0.7330 1.6208 0.8327 0.2422 0.5091 0.5019 -0.7264 -0.8389 0.8024 -0.1132 -1.5152 -0.4881 0.2822
3.6755 0.3367 0.5240 -0.7163 1.6282 0.0426 -2.9812 0.3767 0.2340 -2.0925 -1.6892 -0.0344 2.5789 0.6083 -0.3858 1.6830 -0.6052 -0.4463 0.4681 -0.4108 0.4316 -0.6607 0.2267 -0.3492 -1.9548 -0.4715 -0.0165
3.1953 -0.6004 0.6590 -0.9746 0.7328 -1.6537 -2.7634 -0.2265 0.8636 -1.0029 -1.5619 0.3036 2.0778 -0.5985 -0.2661 1.5909 0.8186 -0.4496 0.3840 1.0890 0.4222 -0.9664 0.8118 -0.2058 -1.5406 -0.4650 0.3267
3.6687 0.0806 0.8389 -1.2549 1.7326 -0.0975 -2.3434 -0.7449 -1.0592 -2.2516 -1.1425 1.1797 2.6655 -0.4672 -0.0559 1.6947 0.6341 -0.3995 0.3609 0.0486 -0.7983 -0.7045 0.4224 0.2067 -1.8353 -0.5637 0.1850
3.8291 0.1937 0.6204 -1.1712 1.7069 0.0762 -2.4142 -0.5533 -1.1277 -2.3247 -1.2574 1.0343 2.6229 -0.4611 0.1478 1.6893 0.6020 -0.3740 0.3603 -0.0042 -0.7578 -0.7040 0.3429 0.2590 -1.8875 -0.5695 0.1218
3.7575 0.1649 0.3265 -1.5136 1.1194 -1.5969 -1.0087 -1.4780 0.6449 -2.9743 -0.4021 0.3001 2.4902 -0.4903 0.5935 1.4012 0.5517 0.5365 0.5124 0.2856 -0.6552 -0.9098 0.6885 -0.3449 -1.7549 -0.4396 0.1954
3.4211 -0.4501 0.3628 -1.4077 1.7696 -0.6350 -1.9645 -1.6268 -0.2429 -1.4354 -0.1858 1.4418 2.0159 -0.4481 0.7259 1.3462 0.7335 0.0672 0.4969 0.2677 -1.0953 -0.9943 0.4003 -0.8765 -1.4782 -0.4604 0.2520
3.7222 -0.2686 0.7864 -1.5076 1.7241 -0.6847 -2.1156 -1.0855 -0.8871 -2.1416 -0.7858 1.3685 2.7437 0.3645 -0.0785 1.4476 -0.3946 0.0512 0.3897 0.2322 -0.8241 -0.7894 0.6712 0.0115 -1.7491 -0.4575 0.2568
3.6547 -0.5745 -0.2145 -0.7480 0.7395 -1.6188 -2.9936 -0.0117 0.6880 -1.4770 -1.5944 0.0655 2.7035 0.4347 0.2127 1.3332 -0.1941 0.2542 0.3050 0.8546 0.6136 -0.9755 0.7689 -0.1867 -1.8023 -0.4232 0.1860
3.1412 1.1227 0.5095 -0.6417 1.6155 -0.4332 -1.4662 -1.5242 0.6948 -2.9814 0.1053 0.2634 2.7829 -0.2267 0.1112 1.3209 -0.4385 0.4146 0.5201 -0.5000 -0.8686 -0.8108 0.2190 -0.7961 -1.8650 -0.3732 0.1045
3.4040 -0.0288 -0.6452 -0.5298 1.0517 -1.1873 -2.7804 0.0774 1.0014 -2.2108 -1.3183 -0.7092 2.5477 0.8426 0.1389 1.6465 0.0115 1.0247 0.5076 -0.5991 0.2357 -0.6475 0.3648 0.0891 -1.9372 -0.4019 0.0518
3.1500 -0.9320 0.3672 -1.6754 1.5824 -0.7980 -1.9081 -1.2580 -0.7239 -1.6371 -0.8407 1.4961 2.1273 0.0034 0.7959 1.7251 0.8676 -0.3764 0.4308 0.3795 -0.9883 -0.7420 0.7191 -0.0989 -1.4707 -0.5213 0.3265
2.8940 0.3561 1.2186 -1.0257 1.6197 -0.5284 -1.6295 -1.7522 -0.1038 -2.8274 -0.0775 0.8463 2.7952 -0.2539 -0.0953 1.7377 0.4793 -0.8810 0.4299 -0.2777 -0.8450 -0.5725 0.3775 0.0833 -1.8017 -0.4714 0.3052
3.6900 -0.4294 0.3952 -1.7865 1.6505 -0.8652 -2.0897 -1.5045 -0.4122 -1.5546 -0.2926 1.4440 2.2919 -0.2940 0.7592 1.4819 -0.1206 -0.5023 0.4343 0.9446 -0.2799 -0.9201 0.4867 -0.7699 -1.5472 -0.4407 0.2310
3.5838 -0.0728 0.0444 -1.6455 1.3717 -1.3236 -1.3471 -1.4276 -0.7227 -2.2267 -0.6492 1.2273 2.3357 -0.6920 0.4543 1.3271 0.3907 0.7586 0.5143 0.6947 -0.4797 -0.9529 0.8485 -0.1580 -1.5886 -0.4641 0.1996
2.7428 -0.8264 1.2100 -1.9811 1.1528 -1.2714 -1.2129 -1.4877 -0.3838 -1.6195 -0.4278 1.5891 2.3475 -0.4567 -0.1362 1.5509 0.8236 -0.0679 0.3940 0.7417 -1.0365 -0.9259 0.8720 -0.3128 -1.2958 -0.3916 0.4096
3.2762 0.9915 0.2655 -1.1057 1.5975 -0.9253 -1.5471 -1.6632 -0.1185 -2.9659 -0.0311 0.5657 2.8986 -0.4019 0.1049 1.4572 -0.5722 0.5180 0.5354 -0.1030 -0.5840 -0.6886 0.5591 0.0049 -1.8602 -0.3767 0.1689
2.8997 -1.0772 0.3355 -1.7853 1.4370 -1.0031 -1.6223 -1.4035 -0.6139 -1.5720 -0.6829 1.5441 2.0616 -0.0086 0.8480 1.7063 0.9431 -0.2721 0.4590 0.4996 -1.0040 -0.7797 0.7812 -0.1876 -1.3673 -0.4886 0.3531
3.4129 -0.4042 0.0304 -1.7056 1.1663 -1.4726 -1.0550 -1.5183 -0.4982 -2.2237 -0.5713 1.2110 2.1388 -0.5662 0.7079 1.3665 0.7326 0.6493 0.5137 0.7815 -0.5994 -0.9593 0.8458 -0.2668 -1.4882 -0.4661 0.2385
3.3474 -0.0332 0.7718 -1.3584 1.3659 -1.2659 -1.2263 -1.3803 -0.7752 -2.2744 -0.8600 1.1756 2.2769 -0.6912 0.0433 1.3945 0.3461 -0.6116 0.4421 0.9438 0.4010 -1.0194 0.8420 0.0410 -1.5824 -0.5332 0.2200
4.0296 0.3028 -0.1143 -0.9390 1.5048 0.6483 -2.7771 -0.2944 -1.2576 -2.3415 -1.1594 0.8059 2.7542 0.1793 0.5661 1.6729 -0.0002 -0.4709 0.4039 -0.4555 0.2086 -0.7758 0.3712 -0.2484 -2.0272 -0.4487 -0.1377
3.7475 -0.5518 0.4069 -1.4335 1.1020 -1.5769 -1.8589 -1.7435 0.0689 -2.3978 0.2355 1.0655 2.7331 0.3828 -0.0436 1.4011 -0.0683 0.4994 0.3202 0.8897 0.0600 -0.7468 0.1540 -0.7160 -1.7650 -0.4004 0.2358
3.9478 0.0263 -0.1404 -1.1905 1.5632 -0.7852 -2.1914 -1.5429 -0.8284 -2.5549 -0.3079 1.0539 2.6585 -0.4158 0.3588 1.6580 0.6791 0.0916 0.3084 0.3063 0.6573 -0.7217 0.2293 -0.4466 -1.9142 -0.5376 0.0390
3.0568 -0.3136 0.9938 -0.8907 0.4894 -1.7666 -0.8193 -1.5817 0.2458 -2.7487 -0.5031 0.7841 2.1944 -0.3819 -0.1717 1.5593 0.9665 -0.4125 0.2761 1.1097 0.3766 -0.9981 0.7111 -0.3375 -1.6298 -0.4964 0.2880
2.9572 -0.3446 1.0231 -0.7677 0.2873 -1.7951 -0.8076 -1.5328 0.4793 -2.8073 -0.4611 0.6667 2.2114 -0.3100 -0.2206 1.5736 1.0490 -0.3874 0.2538 1.1304 0.3489 -0.9713 0.6614 -0.4094 -1.6420 -0.4796 0.2945
3.8562 -0.1288 -0.2787 -1.1931 1.5015 -0.9124 -2.1530 -1.5923 -0.7625 -2.5346 -0.2723 1.0572 2.6544 -0.3236 0.5119 1.6613 0.7399 0.1176 0.2940 0.4088 0.6669 -0.6987 0.2117 -0.4573 -1.8866 -0.5448 0.0573
3.0246 -1.0216 0.5485 -1.8450 1.0221 -1.4800 -1.0630 -1.7772 0.2014 -1.9423 0.0431 1.2550 1.9902 -0.0451 0.8331 1.6596 0.6761 -0.4511 0.2744 1.2717 -0.3662 -0.7597 0.2843 -0.8564 -1.3388 -0.4535 0.3157
3.4496 -0.6193 0.2529 -1.2151 0.8565 -1.7264 -0.8793 -1.5532 -0.2964 -2.4995 -0.6612 1.0274 2.2523 -0.0346 0.8266 1.3925 0.4848 -0.2988 0.2133 1.2372 0.2731 -1.1258 0.8116 -0.2809 -1.5880 -0.5218 0.2224
3.2597 0.8751 -0.1340 -0.7381 1.7528 -0.0354 -2.2917 0.0453 -1.2519 -2.0389 -1.6000 0.2856 2.7388 -0.4740 -0.0036 1.2631 -0.4627 -0.3183 0.4666 -0.1420 0.9285 -0.8838 0.4768 0.6415 -1.7757 -0.4713 -0.1125
3.1706 -0.2366 -0.3079 -1.2989 0.8967 -1.7378 -1.3296 -1.7936 0.1374 -2.2428 0.1229 0.9708 2.0118 -0.6134 0.4795 1.3163 0.6288 0.9862 0.3504 1.2299 -0.0145 -0.5084 0.2114 -0.7299 -1.4693 -0.4460 0.2162
2.3376 -1.0346 0.9793 -1.5370 0.9024 -1.5873 -0.8938 -1.5098 -0.3128 -1.9387 -0.5621 1.4689 2.5807 0.1403 0.1610 1.4035 0.3499 -0.7612 0.4153 1.2989 -0.1212 -1.0263 0.8668 -0.2329 -1.3412 -0.4518 0.4063
3.0079 -0.8408 -0.1597 -1.0812 0.3699 -1.8985 -1.6330 -1.6612 0.6600 -2.5199 0.4389 0.6493 2.7258 0.5148 0.2771 1.3520 0.5376 0.9007 0.3309 1.0621 -0.0824 -0.5151 -0.0638 -0.6317 -1.6674 -0.3574 0.2853
3.0115 -0.6144 0.2144 -0.1229 -1.2670 -1.1864 -1.3253 -0.6587 1.3411 -2.9903 0.0375 -0.0419 2.5815 0.7720 0.2489 1.1312 0.8151 0.6610 0.2541 1.1023 -0.5371 -0.7337 0.0065 -0.8633 -1.8061 -0.1934 0.1634

>  <OB_ATOM_TYPES> (1lahA1)
N.3 N.3 O.co2 O.co2 C.3 C.3 C.3 C.3 C.2

>  <ENSEMBLE_RMSD> (1lahA1)
0.522 0.643 0.652 0.668 0.730 0.765 0.850 0.866 0.875 0.898 0.913 0.921 0.928 0.936 0.986 0.987 0.996 1.000 1.013 1.028 1.056 1.071 1.075 1.110 1.128 1.128 1.137 1.176 1.193 1.197 1.199 1.233 1.251 1.260 1.268 1.272 1.281 1.304 1.313 1.331 1.342 1.356 1.357 1.373 1.379 1.384 1.425 1.432 1.474 1.541

$$$$
