
 OpenBabel03071213D

  6  5  0  0  0  0  0  0  0  0999 V2000
   14.2950   23.9210    4.5450 N   0  0  0  0  0
   16.1090   21.3460    3.3700 O   0  0  0  0  0
   15.8360   22.6310    5.6100 O   0  0  0  0  0
   14.0870   22.0030    2.6050 O   0  0  0  0  0
   14.9610   22.8170    4.7260 C   0  0  0  0  0
   14.9360   21.8010    3.5270 C   0  0  0  0  0
  1  5  1  0  0  0
  2  6  1  0  0  0
  3  5  2  0  0  0
  4  6  2  0  0  0
  5  6  1  0  0  0
M  END
>  <MOLID> (1ldmA1)
1ldmA1

>  <SMILES_CANONICAL> (1ldmA1)
OC(=O)C(=O)N	

>  <FINGERPRINT> (1ldmA1)
0000000000000000000000000000000000000000000000000000000000000000000000000000000000000000000000000000000000000000000001000000000000000000000000000000000000000000000000000000000000000000000000000000000000000000000000000000000000000000000000000000000000000000000001000000000000000000000000000000000000000000000000000000000000000000000000000000000000000000010000000000000001100000000000000000000000000000100000000000000000000000000000000000000000000000000000000000000000000000000000000000000000001000000000000000100000000000000000000000000000000000000000000000000000000000000000000000000000000000000000000000000000000000000000000000000000000000000000000000000000000000000000000000000000000000000011100000000000000010000000000000000000000000000000000000000000000000000000000000000000000000000000000000000000000000000000000000000000000000000000000000000000000000000000000000000000000000000000000000000000000000000000000000000000000000000000000000010000000000000000000000000000000000000000000000000000000000000000000000000000000000

>  <MACCS166> (1ldmA1)
000000000000000000000000000000000000000000000000000001000000000000000001000000000001000000010010000000000000010000001000001000000010000100110100010000100101111010010000

>  <OB_MW> (1ldmA1)
89.0113

>  <OB_logP> (1ldmA1)
-0.7434

>  <OB_PSA> (1ldmA1)
80.39

>  <OB_MR> (1ldmA1)
16.4072

>  <OB_ATOMIC_CHARGES> (1ldmA1)
-0.0778222378 -0.2352982828 -0.2593485389 -0.2352982828 0.3642563034 0.4435110389

>  <MCT_HBD> (1ldmA1)
2

>  <MCT_HBA> (1ldmA1)
4

>  <ENSEMBLE_TOTAL> (1ldmA1)
2

>  <ENSEMBLE_COORDS> (1ldmA1)
-0.7423 1.5012 0.4812 1.0717 -1.0738 -0.6938 0.7987 0.2112 1.5462 -0.9503 -0.4168 -1.4588 -0.0763 0.3972 0.6622 -0.1013 -0.6188 -0.5368
0.0493 1.7364 0.3199 1.1134 -0.3952 -1.2400 -0.0787 -0.1149 1.7291 -1.0179 -1.1591 -0.8509 -0.0127 0.4038 0.6276 -0.0533 -0.4710 -0.5856

>  <OB_ATOM_TYPES> (1ldmA1)
N.am O.co2 O.2 O.co2 C.2 C.2

>  <ENSEMBLE_RMSD> (1ldmA1)
0.000 0.746

$$$$
