
 OpenBabel03071213D

 17 16  0  0  0  0  0  0  0  0999 V2000
   36.3230   41.3020   -1.1770 C   0  0  0  0  0
   37.3890   43.6090   -1.4380 C   0  0  0  0  0
   37.2080   35.3690   -1.3120 N   0  0  0  0  0
   35.2180   41.9110   -4.0740 N   0  0  0  0  0
   39.2780   37.3700   -5.3320 O   0  0  0  0  0
   37.1930   38.0770   -5.6910 O   0  0  0  0  0
   38.7430   42.0470   -3.5200 O   0  0  0  0  0
   38.5920   35.5550   -1.7840 C   0  0  0  0  0
   39.1560   36.9170   -1.4200 C   0  0  0  0  0
   38.3260   38.0680   -1.9720 C   0  0  0  0  0
   39.1870   38.9660   -2.8290 C   0  0  0  0  0
   37.4460   40.2800   -3.9450 N   0  0  0  0  0
   36.2950   42.6460   -1.9350 C   0  0  0  0  0
   36.4240   42.4260   -3.4230 C   0  0  0  0  0
   38.5750   39.3660   -4.1450 C   0  0  0  0  0
   38.3100   38.1650   -5.0940 C   0  0  0  0  0
   37.6440   41.5710   -3.6660 C   0  0  0  0  0
  1 13  1  0  0  0
  2 13  1  0  0  0
  3  8  1  0  0  0
  4 14  1  0  0  0
  5 16  1  0  0  0
  6 16  2  0  0  0
  7 17  2  0  0  0
  8  9  1  0  0  0
  9 10  1  0  0  0
 10 11  1  0  0  0
 11 15  1  0  0  0
 12 15  1  0  0  0
 12 17  1  0  0  0
 13 14  1  0  0  0
 14 17  1  0  0  0
 15 16  1  0  0  0
M  END
>  <MOLID> (1lnaA1)
1lnaA1

>  <SMILES_CANONICAL> (1lnaA1)
NCCCC[C@@H](C(=O)O)NC(=O)[C@H](C(C)C)N	

>  <FINGERPRINT> (1lnaA1)
0000000000000001000000000000000000000001000000000101000000000000000000000001000000000000000000000000000000000000000001000000000000000000000010000000000010000000000000000000000000000000000000000000000000000000000000000000000000100000000000000000000000000000000000000000000000000000000000000000000000000000000000001000000000000000001000000000000000000000010000000000000100110000000000000000011000000000100000000000101000000000100000000000000000000001100000000001100000000000000000000000000000001000000000000000100000010000000000000000000000000000000000000000000000000000000000000000000001000000001000000000000000000000000000000000001000000001000000000000000000000000000000000011000000000100000011100011000000000011000000000000000000000001000000100001000000000000000110000000000000000000000000000000000000000000000000000000000000000000000000000000000000000000000000000001000000000000000000000000000000001000000000000000000000000000000000000000010000000000000000010010000000000000010000000000000000000000000000000010001000000000

>  <MACCS166> (1lnaA1)
000000000000000000000000000000000000000000000000000001000000000000000000010000100101000001110010000100010000011000001100001000001010000101111100011010101111111110010000

>  <OB_MW> (1lnaA1)
245.174

>  <OB_logP> (1lnaA1)
1.4596

>  <OB_PSA> (1lnaA1)
118.44

>  <OB_MR> (1lnaA1)
65.1793

>  <OB_ATOMIC_CHARGES> (1lnaA1)
0.0019941227 0.0019941227 -0.1313873305 -0.1230672294 -0.2437494641 -0.2437494641 -0.271769131 0.1093073233 0.0205720253 0.0038783912 0.0333324946 -0.1943833294 0.0265514701 0.1692450556 0.1977812724 0.3841986134 0.2592510573

>  <MCT_HBD> (1lnaA1)
4

>  <MCT_HBA> (1lnaA1)
6

>  <ENSEMBLE_TOTAL> (1lnaA1)
49

>  <ENSEMBLE_COORDS> (1lnaA1)
-1.4009 1.6758 1.9264 -0.3349 3.9828 1.6654 -0.5159 -4.2572 1.7914 -2.5059 2.2848 -0.9706 1.5541 -2.2562 -2.2286 -0.5309 -1.5492 -2.5876 1.0191 2.4208 -0.4166 0.8681 -4.0712 1.3194 1.4321 -2.7092 1.6834 0.6021 -1.5582 1.1314 1.4631 -0.6602 0.2744 -0.2779 0.6538 -0.8416 -1.4289 3.0198 1.1684 -1.2999 2.7998 -0.3196 0.8511 -0.2602 -1.0416 0.5861 -1.4612 -1.9906 -0.0799 1.9448 -0.5626
-1.6619 4.1153 1.7486 -1.2975 1.6977 2.1177 -0.2358 -3.5255 3.1630 -2.4582 2.1504 -0.5987 1.9085 -0.7569 -2.9336 -0.2390 -1.3565 -2.4526 0.6018 2.3500 -1.7942 0.1837 -4.2975 2.0062 1.2289 -3.5226 1.2402 0.5860 -2.4619 0.3757 1.5213 -1.2797 0.2717 0.0564 0.5874 -0.3904 -0.9371 2.8859 1.2584 -1.1600 2.6764 -0.2222 1.1503 -0.2627 -0.7823 0.8304 -0.8695 -2.1188 -0.0779 1.8697 -0.8886
-0.5187 4.6550 0.6361 -2.3971 3.7777 1.9919 0.0666 -4.8275 2.4966 -2.0255 2.7092 -0.9471 -0.7842 -1.6745 -2.3209 1.3492 -1.6537 -3.1076 1.0352 2.1295 0.0637 1.1482 -4.5092 1.5819 1.4170 -3.0264 1.6486 0.6696 -2.3191 0.5464 1.5206 -1.1957 0.0070 -0.2712 0.3510 -0.6302 -1.1341 3.4182 1.2514 -1.3658 2.2777 0.2764 0.8412 -0.4283 -1.1013 0.5153 -1.2982 -2.2838 -0.0665 1.6142 -0.1091
-1.7827 3.4189 2.2404 -2.0459 1.0621 1.5502 -0.1461 -3.5873 3.1276 -2.0069 2.7557 -0.8637 -0.7832 -1.2542 -2.4673 1.3175 -1.9228 -3.0021 1.3286 2.5709 -0.8738 0.3826 -3.8561 1.8015 1.4107 -2.8050 1.4599 0.7426 -1.6335 0.7824 1.7201 -0.9570 -0.1487 0.0179 0.6653 -0.8566 -1.1665 2.2867 1.4537 -0.8714 2.7281 0.0381 1.0434 -0.2435 -1.2977 0.5638 -1.2238 -2.3366 0.2754 1.9954 -0.6072
-0.4277 4.1458 0.8287 -1.9015 3.0761 2.5108 -1.0388 -3.3681 1.2001 -2.5740 2.4391 -0.4474 -0.4182 -1.8808 -1.7161 1.5239 -1.6976 -2.8822 0.0015 2.1123 -1.5636 0.2543 -3.6811 1.7823 1.3444 -3.1233 0.9027 1.6210 -1.6815 1.2552 2.2440 -0.9870 0.0665 0.1152 0.2271 -0.2212 -0.9298 2.8328 1.3811 -1.4818 1.8842 0.3351 1.2400 -0.3752 -0.8881 0.8181 -1.3726 -1.9358 -0.3908 1.4496 -0.6082
0.3577 3.9295 1.1085 -1.9514 3.9494 1.8996 -0.1533 -5.3575 1.4690 -2.6243 1.9502 -0.1630 -0.3925 -1.1749 -2.3034 1.8535 -1.2771 -2.6378 0.2695 2.2039 -1.8481 0.1716 -4.2125 2.3011 1.2133 -3.3748 1.5992 0.5439 -2.3513 0.7120 1.4751 -1.1848 0.4841 -0.1044 0.5631 -0.2567 -0.9030 3.0984 1.2168 -1.3529 2.6534 -0.1610 1.0250 -0.2554 -0.6185 0.8951 -0.9508 -1.9499 -0.3228 1.7913 -0.8518
-1.7239 3.9924 1.6910 -0.5052 1.9451 2.3736 -0.3103 -4.2870 2.3795 -2.4428 1.2385 0.2412 -0.2727 -1.1228 -2.6003 1.9335 -1.2588 -3.1200 0.0999 2.2057 -1.8625 -0.5704 -2.8784 2.1382 0.7372 -2.1798 1.8539 1.0981 -2.3360 0.3956 1.9810 -1.1921 -0.0427 0.1434 0.3773 -0.4451 -0.8176 2.8782 1.2290 -1.3834 2.2005 0.0028 1.3005 -0.2590 -1.0189 1.0433 -0.9314 -2.3458 -0.3105 1.6075 -0.8696
-1.1981 4.8033 1.1803 -0.7846 2.5386 2.0965 1.2847 -5.0643 0.5761 -2.6282 2.3760 -0.2399 -0.4424 -1.1926 -2.2061 1.7737 -1.6893 -2.1510 0.1735 1.9830 -2.0581 0.4692 -4.5961 1.6830 0.8538 -3.1785 2.0321 0.2085 -2.1879 1.0901 1.1950 -1.0797 0.8001 -0.2571 0.6256 -0.2360 -0.6526 3.4285 0.8850 -1.2615 2.8451 -0.3672 0.8576 -0.2695 -0.4291 0.7995 -1.1228 -1.6724 -0.3910 1.7808 -0.9836
-1.6870 4.0919 1.8073 -1.4258 1.6386 2.0067 0.1148 -4.1028 3.4440 -2.2453 2.5661 -0.8001 -0.1524 -0.4129 -3.2140 1.9044 -1.2955 -2.8216 1.1610 2.2418 -1.1703 1.2949 -3.8512 2.6358 0.8607 -3.5986 1.2127 0.7991 -2.1134 0.9549 0.0532 -1.8412 -0.3285 -0.3283 0.5232 -0.7371 -0.9291 2.8834 1.3120 -0.9455 2.8015 -0.1980 0.5852 -0.5705 -0.9459 0.8636 -0.8022 -2.4070 0.0766 1.8419 -0.7508
-1.8265 3.7689 1.7871 -0.4041 1.8390 2.4164 -1.3515 -2.5702 1.7558 -2.4175 0.9402 0.4291 -0.2470 -1.3483 -2.4910 1.9044 -1.2147 -3.2079 -0.0972 2.0542 -1.8508 -0.0709 -3.0330 2.2607 1.0082 -2.0626 1.8454 1.4541 -2.3469 0.4297 2.1808 -1.1433 -0.1231 0.1838 0.2656 -0.4086 -0.8657 2.7209 1.2817 -1.4528 1.9746 0.1066 1.3432 -0.2940 -1.0530 1.0532 -0.9972 -2.3545 -0.3944 1.4469 -0.8236
-1.8351 2.8940 2.4546 -2.2184 0.7693 1.2529 0.4650 -3.6117 3.0222 -1.7055 2.9442 -0.7074 -0.8765 -1.4725 -2.2933 1.1049 -1.8604 -3.3338 1.5513 2.3291 -0.4507 -0.2627 -2.6742 2.1854 0.7059 -1.6552 1.6356 1.1557 -2.0769 0.2583 1.8716 -0.9448 -0.4383 0.0648 0.6300 -0.9666 -1.2268 1.8777 1.5173 -0.7080 2.5605 0.2722 1.0410 -0.2778 -1.5145 0.4494 -1.2725 -2.4827 0.4232 1.8411 -0.4110
-1.8024 3.3230 2.3009 -2.8902 2.2134 0.3646 -0.4300 -4.2647 0.8219 -0.7242 4.1128 -0.4729 -0.9409 -1.3125 -0.6260 0.3938 -1.9752 -2.3426 -0.2685 1.8546 -1.9390 0.7849 -4.0748 1.5939 1.7850 -3.3137 0.7604 1.7721 -1.8528 1.1469 2.2996 -1.0165 0.0043 0.6503 0.7940 -0.0891 -1.5950 2.4164 1.1128 -0.4387 2.8820 0.2493 1.2237 -0.3201 -0.7974 0.2019 -1.2824 -1.3516 -0.0215 1.8165 -0.7363
-1.5121 4.4720 -0.7093 -1.5528 4.5795 1.7616 1.4420 -5.6149 1.7395 -2.3352 1.8851 0.4115 -0.7922 -0.9377 -2.0183 1.2879 -1.2933 -2.8615 0.4995 2.2612 -1.2170 0.2765 -4.7510 1.7891 0.7440 -3.3173 1.8294 0.5241 -2.6728 0.4839 1.5715 -1.6092 0.2526 0.1684 0.3909 0.1073 -0.9223 3.9101 0.5650 -0.9988 2.3983 0.6766 1.0769 -0.4685 -0.6058 0.5600 -0.9397 -1.9430 -0.0373 1.7071 -0.2617
-2.7221 2.1647 -0.2407 -2.2717 4.5368 0.2809 0.6132 -5.0040 0.5994 -0.6642 2.4260 1.9402 -1.3371 -1.3227 -1.4373 0.4768 -2.0860 -2.5701 1.6720 2.3061 -0.3727 0.7886 -4.2161 1.8067 1.6998 -3.0510 1.5077 0.8943 -1.8272 1.1402 1.6609 -1.0324 0.1093 -0.0065 0.7118 -0.3757 -1.6661 3.2440 -0.2126 -0.4318 2.8912 0.5866 0.7865 -0.3566 -0.9228 -0.0161 -1.3406 -1.7327 0.5236 1.9561 -0.1066
-1.3601 0.8810 1.9815 -2.6192 2.9825 1.7233 -1.0724 -2.5866 2.0535 0.3555 3.1679 0.9328 -0.8036 -1.4362 -1.8753 0.9720 -1.5847 -3.2873 -0.1110 2.0294 -2.0739 0.2838 -2.9615 2.4135 1.2531 -1.9909 1.7837 1.5000 -2.3589 0.3395 2.1681 -1.2092 -0.3776 0.3841 0.4796 -0.4266 -1.8235 1.9254 0.9941 -0.7152 2.5506 0.1750 1.2301 -0.3736 -1.2200 0.4772 -1.1895 -2.2396 -0.1190 1.6747 -0.8966
-3.3028 2.9053 0.8222 -1.7481 3.9523 -0.8035 0.2321 -4.4813 2.7664 -0.4045 3.3113 1.8108 -0.9250 -1.1124 -2.1885 1.1203 -1.6131 -3.0359 1.2804 2.3880 -0.1633 0.6474 -4.4754 1.3748 1.6342 -3.3534 1.1631 0.9005 -2.0912 0.7849 1.7840 -1.2286 -0.0835 0.0124 0.4546 -0.3035 -2.0343 2.7237 0.0257 -0.8883 2.2785 0.9107 0.9974 -0.3236 -1.0047 0.4284 -1.0850 -2.1744 0.2657 1.7502 0.0987
-1.0579 4.6449 1.5482 -2.0220 2.3685 1.7390 1.7756 -5.0270 2.1949 -1.7698 3.0057 -1.1436 -0.2929 -0.4544 -2.8968 1.3946 -1.8568 -2.3091 1.4543 1.9196 -0.7854 1.7330 -3.5780 2.1065 0.3138 -3.1370 1.8367 0.0921 -2.9994 0.3502 -0.6889 -1.7446 0.0364 -0.4311 0.6056 -0.4831 -0.8769 3.1892 1.1983 -0.6052 3.0081 -0.2777 0.2090 -0.6861 -0.5681 0.5184 -1.0595 -1.9979 0.2538 1.8010 -0.5485
-1.4118 4.1460 1.7582 -1.2596 1.7092 2.2044 1.8671 -3.4774 2.9330 -2.2830 2.2466 -0.5795 0.0208 -0.2446 -3.2971 1.9226 -1.4275 -2.9264 1.1998 2.1048 -1.0442 0.4150 -3.4797 2.9009 -0.0423 -3.4657 1.4621 -0.0791 -2.0465 0.9522 0.0265 -2.0268 -0.5541 -0.3007 0.3688 -0.7724 -0.7786 2.8445 1.3344 -0.9479 2.6191 -0.1493 0.6172 -0.7161 -1.0261 0.9376 -0.8395 -2.4969 0.0966 1.6847 -0.6992
-1.4620 5.2311 0.4046 -0.8574 3.4078 1.9779 1.5300 -5.4255 0.1818 -2.5563 2.3724 -0.2684 -0.5838 -1.1564 -2.1208 1.5963 -1.7114 -1.8119 0.7727 2.0710 -1.4622 1.5615 -4.8398 1.5097 0.5017 -3.7699 1.5943 1.1088 -2.4085 1.3525 0.0064 -1.4507 0.9653 -0.4672 0.6387 -0.1403 -0.7565 3.9060 0.5572 -1.2296 2.9196 -0.4855 0.4676 -0.4632 -0.0837 0.5733 -1.1650 -1.4190 -0.2056 1.8440 -0.7514
-2.6820 2.0656 -0.2432 -2.2534 4.3476 0.5992 1.5470 -4.4261 2.4240 -0.6861 2.0391 2.0142 -1.0884 -1.1557 -2.1382 0.9054 -1.8199 -3.0007 1.7442 2.2087 -0.1482 0.2356 -3.9443 2.0286 0.3665 -3.2070 0.7197 0.6013 -1.7386 0.9760 1.5673 -1.1963 -0.0498 0.0508 0.6877 -0.5639 -1.6300 3.1306 -0.0420 -0.4186 2.6757 0.7397 0.9025 -0.3389 -1.1034 0.2643 -1.1776 -2.1783 0.5736 1.8493 -0.0338
-1.4786 5.2270 0.3363 -0.8113 3.4611 1.9497 1.4548 -5.2437 -0.0809 -2.5679 2.3384 -0.2060 -0.6277 -1.2400 -1.9965 1.5683 -1.7590 -1.7472 0.7235 2.0247 -1.4969 1.5971 -4.8205 1.3004 0.5667 -3.7584 1.5929 1.1692 -2.3822 1.4374 0.0656 -1.4152 1.0769 -0.4591 0.6280 -0.0872 -0.7570 3.9132 0.5110 -1.2539 2.8892 -0.4836 0.4860 -0.4650 -0.0226 0.5531 -1.2114 -1.3364 -0.2290 1.8137 -0.7472
-3.2460 2.3633 1.2810 -1.8843 3.5955 -0.3841 -0.8540 -2.8612 1.5347 -0.3104 2.8246 2.0537 -0.8307 -1.8294 -1.8607 0.8987 -1.6918 -3.3245 1.2786 2.1563 -0.0703 0.4972 -3.1854 1.9564 1.4337 -2.0753 1.5427 1.9266 -2.3110 0.1340 2.2014 -0.9982 -0.5603 0.0660 0.2073 -0.3906 -2.0484 2.2950 0.3654 -0.8112 1.8357 1.1113 1.0082 -0.4128 -1.2854 0.3746 -1.3655 -2.2672 0.3000 1.4529 0.1637
-2.9976 3.7339 0.5575 -1.3800 3.9204 -1.2655 0.7934 -5.1321 0.3128 -1.1240 2.0517 2.0249 -1.1217 -1.3614 -1.6126 0.8554 -1.8679 -2.6120 1.5383 2.3451 0.0765 0.6702 -4.3923 1.5559 1.5618 -3.1785 1.4822 0.7466 -1.9546 1.1385 1.6008 -1.0237 0.3117 -0.0550 0.6992 -0.2864 -1.8455 3.0351 -0.1305 -0.6979 2.7531 0.8233 0.8491 -0.3027 -0.7829 0.2181 -1.2484 -1.7696 0.3878 1.9230 0.1763
0.0718 4.5988 0.9713 -2.3988 4.6888 0.8888 1.6513 -5.1160 0.0853 -0.9768 3.2833 -1.4715 -0.9691 -1.4039 -2.4224 1.0341 -2.3969 -2.0233 0.7345 1.7407 0.8394 1.9038 -4.4933 1.3723 0.7539 -3.5735 1.6983 1.0974 -2.1572 1.3077 -0.1248 -1.5038 0.7114 -0.5535 0.4788 -0.6091 -1.1977 3.7774 0.9415 -1.2388 2.7255 -0.1528 0.2678 -0.6990 -0.5033 0.1756 -1.5768 -1.7223 -0.2308 1.6270 0.0887
-0.5522 3.1858 2.6674 -2.4786 2.7595 1.1517 1.4137 -3.6620 3.2949 -0.1887 4.0463 -0.2674 2.0518 -0.6312 -1.8181 0.6075 -1.3312 -3.4296 -0.6359 1.9987 -1.9861 0.9147 -4.2546 2.0667 -0.1363 -3.3456 1.4793 0.4739 -2.4095 0.4638 -0.6019 -1.9734 -0.5024 -0.0051 0.4164 -0.4229 -1.0270 2.4567 1.4352 -0.0915 2.6980 0.2694 -0.2632 -0.7185 -1.2676 0.8195 -0.9353 -2.2910 -0.3005 1.6999 -0.8434
-0.2931 4.8495 0.0795 -0.0609 3.1002 1.8217 1.2648 -5.0971 1.5425 -2.6625 2.9946 0.2064 0.7795 -2.0890 -2.8509 1.9935 -0.1797 -2.5739 -1.8549 0.4258 0.6016 0.4574 -4.1520 2.2926 0.9942 -2.7630 2.0493 0.1239 -2.0515 1.0446 0.9596 -1.1101 0.2113 -0.2112 0.6460 -1.0206 -0.2164 3.3651 0.3436 -1.3579 2.6120 -0.3124 0.1906 -0.7409 -1.0379 1.0917 -0.9262 -2.2246 -1.1984 1.1164 -0.1727
-3.0132 3.0881 0.9426 -1.0919 3.8616 -0.3514 -0.2689 -2.5899 3.1319 -1.4621 0.7722 1.8203 -0.6777 -0.8457 -2.8162 1.4532 -0.9886 -3.5912 1.5255 1.6782 0.7270 0.1844 -3.5629 2.1543 1.2835 -2.9425 1.3286 0.7176 -2.3740 0.0489 1.7154 -1.4014 -0.5320 0.0777 0.4581 -0.6098 -1.7676 2.6318 0.2144 -0.8207 1.8834 1.1350 1.0923 -0.2731 -1.3223 0.6647 -0.7317 -2.6899 0.3878 1.3363 0.4098
-2.1358 2.2549 2.5362 -2.7938 1.5770 0.2419 -0.8142 -1.9081 2.0806 -0.5916 3.7155 0.4169 -0.7534 -1.4216 -1.6558 0.8057 -1.3620 -3.3095 0.0570 2.0755 -1.6549 0.2051 -2.9419 2.1271 1.5100 -2.3659 1.6385 1.6490 -2.5951 0.1521 2.3200 -1.4048 -0.4928 0.6572 0.3747 -0.1991 -1.6628 1.6408 1.2403 -0.4027 2.3031 0.7156 1.3622 -0.4392 -1.1549 0.4645 -1.1118 -2.1610 0.1236 1.6088 -0.5211
-2.3860 1.7788 1.1371 -2.2268 4.2035 0.7121 1.7618 -4.7487 2.0457 0.4171 2.7748 1.5864 -0.8233 -0.2624 -2.8420 1.0397 -1.5253 -3.1364 1.3536 2.0852 -1.3527 1.0167 -3.7699 2.8180 -0.0080 -3.1240 1.9164 0.6238 -1.9823 1.1591 -0.0036 -1.8674 -0.2080 -0.1088 0.5285 -0.4640 -1.7281 2.8430 0.2911 -0.2162 2.8129 0.2849 0.5489 -0.6660 -0.9372 0.3090 -0.8656 -2.4103 0.4302 1.7848 -0.6002
-2.6293 1.4855 0.3057 -2.2774 3.8474 0.9289 1.1431 -3.3112 3.6221 -0.1395 1.8804 2.0116 1.5721 -0.7661 -3.4147 -0.6537 -0.3544 -3.1472 1.6351 1.9942 -0.7078 -0.0025 -2.8384 2.8648 0.1398 -3.2839 1.4295 0.9680 -2.2833 0.6622 0.3757 -2.0573 -0.7074 0.0290 0.3370 -0.5528 -1.6900 2.6639 0.1980 -0.2754 2.3977 0.6644 0.7871 -0.6955 -1.2155 0.4492 -0.5868 -2.6751 0.5687 1.5710 -0.2668
-1.5285 2.6489 1.9725 -2.6181 4.1468 0.3220 2.4605 -4.3821 0.7925 0.4002 4.0539 0.1638 -0.7439 -0.7730 -2.7901 0.8996 -2.2371 -2.2292 1.5288 1.6953 -0.5239 1.7295 -4.0616 2.0057 0.3525 -3.5692 1.6319 0.3498 -2.0644 1.5038 -0.6102 -1.6489 0.4117 -0.4981 0.5962 -0.5354 -1.7594 2.9167 0.5032 -0.4898 3.0076 -0.3227 0.0893 -0.7185 -0.5481 0.1358 -1.3288 -1.9246 0.3020 1.7182 -0.4331
0.2177 4.5737 0.8349 -2.2505 4.8059 0.9117 2.3261 -4.9723 1.9189 -1.0010 3.2057 -1.4538 -0.5038 -1.1075 -2.8192 1.4358 -2.0890 -2.1548 0.3884 1.5236 1.1681 1.3407 -4.7237 0.8816 0.2799 -3.7919 1.4169 0.6668 -2.3542 1.1675 -0.3944 -1.6738 0.3383 -0.5242 0.5175 -0.7025 -1.0978 3.8334 0.9286 -1.2701 2.7314 -0.1032 0.2602 -0.6863 -0.5975 0.4840 -1.3521 -1.9272 -0.3577 1.5593 0.1916
-3.0030 3.3149 0.9312 -1.7124 3.7360 -1.1451 1.8779 -5.3069 1.9233 0.0755 3.7424 1.2161 1.3532 -0.9062 -2.8892 -0.8763 -0.4433 -2.7438 1.4267 1.9671 -0.3309 1.3584 -4.1605 2.6468 0.3092 -3.4829 1.7992 0.9594 -2.4368 0.9299 0.0190 -2.0242 -0.1763 -0.2516 0.3822 -0.1261 -1.8975 2.8134 0.0350 -0.6306 2.5338 0.8204 0.4783 -0.6999 -0.7362 0.2020 -0.6609 -2.2124 0.3116 1.6317 0.0579
-1.6054 3.1611 -1.3276 -1.2952 4.7298 0.5496 0.9747 -3.1191 3.4123 -2.1926 1.8459 1.3097 1.8791 -1.0643 -2.8929 -0.2385 -0.3081 -3.2664 0.7703 0.6856 1.5408 1.1541 -4.0317 2.2971 0.2272 -3.6208 1.1794 0.9417 -2.6877 0.2335 -0.0663 -1.8499 -0.5148 -0.1394 0.5815 -0.5851 -0.8211 3.4333 -0.0653 -0.8685 2.3139 0.9503 0.6035 -0.5844 -0.9973 0.6622 -0.6091 -2.4982 0.0142 1.1240 0.6748
-1.3291 3.6553 2.1876 -2.1310 1.3702 1.6716 1.6482 -1.8918 3.0648 -1.5859 2.8340 -0.8607 0.1198 -0.0985 -3.3593 1.5405 -1.8338 -3.0199 1.5967 1.6260 -0.4263 0.7614 -2.9986 2.7495 0.6258 -3.1136 1.2506 -0.5224 -2.2622 0.7630 -0.4476 -2.0942 -0.7364 -0.2871 0.3351 -0.8146 -0.9842 2.3420 1.5267 -0.5336 2.5617 0.1009 0.3986 -0.8976 -1.1159 0.7532 -1.0060 -2.5783 0.3769 1.4721 -0.4035
-2.7363 3.7386 -0.1281 -0.2838 4.0064 0.1367 -0.5230 -3.7572 2.2748 -1.5479 2.0790 2.1348 -0.3417 -0.4206 -3.2352 1.7879 -1.2064 -3.2315 0.8240 1.0054 1.2296 0.8993 -3.5170 2.4439 1.2455 -2.1748 1.8464 1.7316 -2.3266 0.4237 0.6008 -2.0303 -0.5334 -0.2750 0.2279 -0.6660 -1.4023 3.0358 -0.1545 -1.4047 1.7951 0.7156 0.7715 -0.6514 -1.1250 0.8121 -0.7793 -2.6259 -0.1580 0.9754 0.4941
-2.3636 2.4643 1.2418 -2.3946 4.6272 0.0512 1.0835 -5.1104 -0.1798 0.4274 3.6424 0.9149 -1.3577 -0.8551 -1.4694 0.4488 -2.1936 -1.7864 0.8087 1.8768 -1.7903 1.8283 -4.7065 0.9993 1.0718 -3.6034 1.6985 1.6188 -2.2575 1.2831 0.4863 -1.2634 1.1797 -0.0581 0.8141 0.0771 -1.8813 3.2074 0.0183 -0.3844 3.1886 -0.1962 0.5744 -0.4713 -0.1059 -0.0939 -1.2626 -1.2046 0.1856 1.9030 -0.7312
-0.0498 2.3528 2.2321 -2.5246 2.2018 2.1396 0.5072 -2.4719 3.8236 -1.3352 3.3454 -0.3877 -0.1132 -0.4713 -3.5030 1.9692 -1.3720 -3.4021 1.0377 1.9754 -0.8347 -0.2111 -1.7995 2.7558 -0.1275 -2.6513 1.5143 1.0595 -2.2383 0.6786 0.6525 -2.2125 -0.7744 -0.2312 0.0402 -0.9601 -1.2300 1.7410 1.5144 -1.2285 1.9532 0.0136 0.8527 -0.8275 -1.3408 0.9765 -0.9258 -2.8394 -0.0040 1.3603 -0.6299
-2.4538 1.9218 2.2527 -2.7250 2.2752 -0.1966 0.1517 -1.8107 3.1512 -0.2565 3.5998 0.8753 -0.8274 -0.6408 -2.4064 1.1057 -1.0805 -3.5158 0.7772 2.2596 -1.2613 0.2128 -3.1258 2.5380 1.2791 -3.1311 1.4693 0.7100 -2.6952 0.1377 1.7431 -1.8642 -0.5901 0.4695 0.2155 -0.2158 -1.8493 1.6976 0.8887 -0.4058 2.1540 0.8515 1.2128 -0.5699 -1.1645 0.5155 -0.7928 -2.4823 0.3407 1.5875 -0.3316
-2.9679 3.3472 0.8864 -1.3399 3.9305 -0.8967 1.0527 -5.1504 2.2783 0.0044 3.2492 1.6941 -0.4626 0.0210 -2.9157 1.3871 -1.2909 -3.0316 1.4258 1.7632 -0.0975 1.2505 -3.7546 2.6245 1.3736 -2.9609 1.3480 0.0411 -2.3243 1.0409 -0.1286 -2.1333 -0.4475 -0.3336 0.2803 -0.3291 -1.8130 2.8532 0.0490 -0.7216 2.2597 0.9167 0.4484 -0.8023 -0.8662 0.5230 -0.7306 -2.3694 0.2607 1.4429 0.1158
-0.2668 1.9999 2.3684 -2.5426 2.8614 1.8759 1.0132 -1.1588 3.1115 -0.7113 3.5802 -0.3518 0.0408 -0.3168 -3.4907 1.7709 -1.7344 -3.1050 1.2573 1.6297 -0.4434 0.7568 -2.5583 2.8233 -0.1874 -2.6541 1.6488 0.5864 -2.8777 0.3703 -0.1737 -2.2969 -0.8006 -0.4191 0.1096 -0.9513 -1.4284 1.9586 1.4034 -1.0602 2.2029 -0.0480 0.4595 -0.9945 -1.2293 0.8327 -1.0664 -2.6882 0.0722 1.3154 -0.4933
-2.4519 2.5764 -0.6870 -1.8611 4.5160 0.7274 1.6036 -3.7202 3.3332 -1.0564 1.8044 1.9339 -0.4256 0.0861 -2.9948 1.4961 -1.1162 -3.1305 1.6389 1.7892 -0.1642 0.4919 -4.1916 2.5254 0.6983 -3.7727 1.0870 0.2532 -2.3417 0.8966 -0.0543 -2.0456 -0.5530 -0.1938 0.3968 -0.3938 -1.3183 3.3336 -0.0397 -0.4157 2.4837 0.8250 0.5367 -0.7128 -0.9570 0.6025 -0.6151 -2.4600 0.4560 1.5298 0.0514
-2.5964 3.9096 1.3416 -2.4783 3.0198 -0.9716 1.5277 -6.0399 2.1577 0.0601 4.3686 -0.0405 -1.1848 -0.3527 -1.9968 0.7048 -1.5209 -2.4753 1.1922 2.1673 -1.1152 2.0110 -4.7981 1.5828 0.8246 -3.9130 1.2920 1.3037 -2.5773 0.7804 0.1281 -1.6433 0.6204 -0.0752 0.7304 0.1820 -1.8993 2.9382 0.4204 -0.3896 3.0848 0.4794 0.4956 -0.5040 -0.3014 0.0409 -0.8452 -1.6991 0.3350 1.9756 -0.2570
-2.6500 2.3982 -0.0541 -1.6875 4.6468 0.2772 2.2689 -3.0285 2.3793 -0.4916 2.3693 2.0585 0.0617 0.2074 -2.8045 1.0344 -1.8378 -2.6929 1.7083 1.5832 -0.2094 1.2654 -4.0222 2.0414 0.0032 -3.3112 1.6188 -0.0369 -3.1916 0.1146 -0.7660 -1.9310 -0.2850 -0.3026 0.4354 -0.2283 -1.3869 3.2236 -0.1291 -0.2226 2.6767 0.6678 0.2176 -0.8420 -0.6522 0.4789 -0.8960 -2.1405 0.5058 1.5196 0.0383
0.2112 3.5853 1.9279 -1.0135 1.4558 2.2795 0.3600 -2.7368 3.5029 -2.1996 3.1194 0.0944 1.9008 -1.3119 -3.3959 2.7657 -0.5540 -1.4285 -2.0837 0.7972 -1.2769 0.1114 -3.4531 2.2648 -0.5862 -2.5261 1.3002 0.4247 -1.8928 0.3758 -0.1618 -1.7805 -1.0112 0.2196 0.6634 -1.0995 -0.2107 2.2784 1.3006 -0.8876 2.5028 -0.0376 0.3599 -0.5935 -1.7943 1.8064 -0.7880 -2.1480 -1.0165 1.2346 -0.8541
-2.5999 1.3708 0.6381 -2.1113 3.7423 1.1080 1.1368 -1.1880 2.9266 0.0145 1.7096 2.1028 -0.5397 -0.0968 -3.0760 1.3977 -1.2303 -3.4304 1.6369 1.7264 -0.6956 0.7891 -2.5861 2.7552 -0.1548 -2.7207 1.5861 0.6258 -2.9485 0.3129 -0.0722 -2.2528 -0.8300 -0.0438 0.1470 -0.4986 -1.6317 2.5038 0.3882 -0.1960 2.2027 0.7575 0.6177 -0.9497 -1.1675 0.5587 -0.7746 -2.6634 0.5720 1.3450 -0.2138
-1.9190 3.2863 -1.3971 -2.7360 2.3438 0.7501 1.7174 -3.7627 3.3172 -0.0538 2.9026 1.9213 -0.7053 0.0348 -2.6277 0.9845 -1.4777 -2.7477 1.5364 2.0512 -0.7432 1.4493 -4.4461 2.0647 0.2691 -3.7865 1.3952 0.7750 -2.8095 0.3652 -0.2714 -1.7651 0.0683 -0.1844 0.6441 -0.0953 -1.7158 3.2448 0.0974 -0.2781 2.9866 0.4912 0.3951 -0.5796 -0.5898 0.2770 -0.7251 -2.0888 0.4600 1.8580 -0.1811
-1.8032 3.3151 -1.0053 -2.7368 1.6319 0.5603 1.3839 -3.3343 3.5913 -0.2415 1.9599 2.2007 -0.7792 -0.0299 -2.9126 1.2532 -0.8938 -3.4464 1.6382 2.0165 -0.4022 0.1446 -3.3115 2.8329 0.4652 -3.4621 1.3636 0.8606 -2.1254 0.7913 0.3056 -1.9512 -0.6006 -0.0549 0.4401 -0.4366 -1.7535 2.7646 0.3976 -0.3441 2.4621 0.8462 0.6919 -0.5862 -1.1213 0.4438 -0.5232 -2.6059 0.5261 1.6274 -0.0528
-2.7632 4.0917 0.8485 -2.1011 3.4021 -1.4431 2.7674 -5.3066 0.7952 0.2248 4.2686 0.2850 -1.2613 -0.6449 -1.5819 0.7056 -1.7189 -1.9619 1.1265 1.9852 -0.9054 1.3825 -5.0803 1.1680 0.8831 -3.8443 0.4628 1.1024 -2.6290 1.3338 -0.0171 -1.6363 1.1344 -0.1980 0.6884 0.4815 -1.9547 3.1121 0.0315 -0.5221 3.0444 0.5212 0.3960 -0.5794 0.1378 -0.0094 -1.0327 -1.2427 0.2385 1.8799 -0.0647

>  <OB_ATOM_TYPES> (1lnaA1)
C.3 C.3 N.3 N.3 O.co2 O.co2 O.2 C.3 C.3 C.3 C.3 N.am C.3 C.3 C.3 C.2 C.2

>  <ENSEMBLE_RMSD> (1lnaA1)
0.000 1.216 1.338 1.345 1.358 1.365 1.469 1.485 1.511 1.541 1.555 1.621 1.629 1.630 1.640 1.657 1.666 1.673 1.674 1.677 1.687 1.701 1.725 1.727 1.745 1.750 1.761 1.770 1.771 1.776 1.778 1.784 1.805 1.813 1.828 1.832 1.838 1.839 1.869 1.884 1.887 1.895 1.962 1.970 2.021 2.079 2.088 2.136 2.152

$$$$
