
 OpenBabel03071213D

 10  9  0  0  0  0  0  0  0  0999 V2000
   24.7560   58.4420   48.3590 N   0  0  0  0  0
   18.6630   58.2310   45.7710 N   0  0  0  0  0
   18.0400   57.7970   49.2670 O   0  0  0  0  0
   17.7910   59.4530   47.9000 O   0  0  0  0  0
   23.5210   58.8140   47.6670 C   0  0  0  0  0
   22.4420   57.7740   47.8560 C   0  0  0  0  0
   21.1600   58.2480   47.2380 C   0  0  0  0  0
   20.1830   57.0870   47.2580 C   0  0  0  0  0
   18.7290   57.4460   46.9820 C   0  0  0  0  0
   18.1410   58.2870   48.1410 C   0  0  0  0  0
  1  5  1  0  0  0
  2  9  1  0  0  0
  3 10  1  0  0  0
  4 10  2  0  0  0
  5  6  1  0  0  0
  6  7  1  0  0  0
  7  8  1  0  0  0
  8  9  1  0  0  0
  9 10  1  0  0  0
M  END
>  <MOLID> (1lstA1)
1lstA1

>  <SMILES_CANONICAL> (1lstA1)
NCCCC[C@@H](C(=O)O)N	

>  <FINGERPRINT> (1lstA1)
0000000000000001000000000000000000000001000000000000000000000000000000000000000000000000000000000000000000000000000001000000000000000000000010000000000000000000000000000000000000000000000000000000000000000000000000000000000000000000000000000000000000000000000000000000000000000000000000000000000000000000000000001000000000000000000000000000000000000000010000000000000100110000000000000000010000000000100000000000100000000000100000000000000000000000000000000000000000000000000000000000000000001000000000000000100000000000000000000000000000000000000000000000000000000000000000000000000001000000001000000000000000000000000000000000000000000001000000000000000000000000000000000001000000000000000010100011000000000011000000000000000000000000000000000000000000000000000100000000000000000000000000000000000000000000000000000000000000000000000000000000000000000000000000000000000000000000000000000000000000000000000000000000000000000000000000000000010000000000000000000000000000000000000000000000000000000000000000000000000000000000

>  <MACCS166> (1lstA1)
000000000000000000000000000000000000000000000000000001000000000000000000000000000101000001100010000100010000001000000100001000001010000101110100011000101111111010010000

>  <OB_MW> (1lstA1)
146.106

>  <OB_logP> (1lstA1)
0.9279

>  <OB_PSA> (1lstA1)
89.34

>  <OB_MR> (1lstA1)
38.1426

>  <OB_ATOMIC_CHARGES> (1lstA1)
-0.1313873311 -0.1208211621 -0.2440508642 -0.2440508642 0.109307191 0.0205620662 0.0035968236 0.0306563172 0.1943290905 0.381858733

>  <MCT_HBD> (1lstA1)
3

>  <MCT_HBA> (1lstA1)
4

>  <ENSEMBLE_TOTAL> (1lstA1)
45

>  <ENSEMBLE_COORDS> (1lstA1)
4.3052 0.5343 0.5015 -2.1293 -0.7785 -1.7498 -1.9480 -0.6330 1.3298 -3.0065 1.1952 0.4892 3.3212 -0.4393 0.0641 2.0017 -0.1308 0.7298 1.0314 0.4533 -0.2704 -0.0262 -0.5734 -0.5960 -1.3593 0.0816 -0.8668 -2.1902 0.2906 0.3688
3.7544 1.0330 0.2591 -1.8790 -0.3795 -1.7482 -2.2265 -0.5612 1.3635 -2.7526 1.4872 0.5326 2.7656 0.1876 0.9034 2.4007 -0.9456 -0.0261 1.2383 -0.5521 -0.9058 -0.0703 -0.8618 -0.2194 -1.1205 0.1461 -0.6253 -2.1102 0.4463 0.4660
3.8590 0.9517 0.7184 -2.2043 -0.6166 -1.7639 -1.6656 -0.2458 1.4948 -3.1262 1.1141 0.4163 3.3631 -0.4127 0.6677 2.3476 -0.5390 -0.4437 1.0177 0.0347 -0.0164 -0.1110 -0.7634 -0.6213 -1.3321 0.0999 -0.8454 -2.1482 0.3771 0.3934
4.1171 -0.1880 0.7189 -1.5956 -0.5766 -1.6635 -2.8672 -0.8950 0.8701 -2.7992 1.3753 0.7386 3.4648 0.5412 -0.3545 1.9909 0.6597 -0.0485 1.2521 -0.5826 -0.4896 -0.0662 -0.7031 0.2431 -1.1510 0.0898 -0.4516 -2.3457 0.2792 0.4371
4.3197 0.5187 0.7580 -1.5486 0.5755 -1.7244 -2.1586 -0.0076 1.6954 -3.6811 0.1432 0.0198 3.5441 -0.0665 -0.3201 2.2935 -0.6614 0.2777 1.1313 -0.4422 -0.6572 -0.0305 0.1636 0.0942 -1.3490 -0.2359 -0.5311 -2.5207 0.0126 0.3877
3.6198 0.5651 0.1979 -2.2050 -0.2585 -1.7978 -1.9836 -0.4121 1.5143 -1.4907 1.5298 0.4255 2.2442 0.8649 0.5506 1.5246 -0.4176 0.8984 1.0921 -1.1831 -0.3349 0.1146 -0.3906 -1.1734 -1.3067 -0.6116 -0.7115 -1.6095 0.3137 0.4309
3.7192 1.0227 -0.1490 -1.6987 -0.2977 -1.7984 -2.9703 -0.4724 0.6417 -1.9168 1.4874 1.1139 2.5320 0.6764 0.6114 2.2473 -0.7971 0.4414 1.2359 -1.0123 -0.6592 -0.1611 -1.1104 -0.0915 -0.9941 0.0522 -0.5773 -1.9933 0.4511 0.4671
4.4565 0.1903 0.1496 -1.1899 0.6299 -1.7232 -1.7939 1.1003 1.0246 -3.4699 -0.3595 0.5464 3.0842 0.6229 0.3350 2.1724 -0.5201 -0.0355 0.7704 -0.2041 0.4176 -0.2162 -1.1225 -0.2648 -1.4592 -0.4264 -0.7679 -2.3544 0.0892 0.3182
2.4895 0.6033 1.4577 -1.9766 -0.4907 -1.6035 -1.6861 -0.3936 1.6114 -2.6874 1.3885 0.6235 3.0246 0.4927 0.1117 2.5208 -0.7881 -0.5095 1.2352 -0.5335 -1.2594 0.0558 -0.8467 -0.3677 -1.0748 0.1174 -0.6388 -1.9011 0.4508 0.5748
3.9822 0.2358 -0.8555 -0.7238 0.1802 -1.6264 -3.4060 -0.5223 0.2522 -2.0660 1.2497 0.7620 2.7659 0.7523 -0.2563 2.2177 -0.2990 0.6760 0.7640 -0.0160 0.9612 -0.0927 -1.1167 0.3769 -1.2065 -0.6262 -0.5211 -2.2349 0.1623 0.2310
4.3432 -0.0035 0.0868 -1.2635 -0.8111 -1.5260 -2.6636 -0.9276 1.3618 -3.1093 0.9123 0.0950 3.0910 -0.7388 0.0804 1.9886 0.1745 0.5603 1.2248 0.7201 -0.6232 -0.2188 0.9823 -0.2576 -1.0228 -0.2996 -0.1861 -2.3695 -0.0086 0.4086
3.9764 -0.4111 1.0410 -1.5386 0.4344 -1.6776 -2.2007 0.4036 1.6313 -3.6390 -0.4463 0.0973 3.6616 -0.0646 -0.3336 2.3371 0.6568 -0.3643 1.2080 -0.3317 -0.5340 -0.0142 0.2008 0.1740 -1.2884 -0.3163 -0.4551 -2.5021 -0.1255 0.4210
3.1093 -0.7889 1.0896 -1.5561 -1.2519 -1.3094 -2.1726 -0.7800 1.4022 -2.9851 1.1615 0.5364 3.4116 -0.0134 -0.1024 2.3456 1.0403 -0.3001 1.1638 0.4872 -1.0635 0.1551 -0.0549 -0.0788 -1.2415 -0.0007 -0.6417 -2.2301 0.2009 0.4677
3.8054 0.7476 -0.0315 -1.0338 1.0258 -1.4390 -2.1655 0.6464 1.6970 -3.1688 -0.3742 -0.0772 2.5291 0.4920 0.6112 2.1087 -0.9322 0.3324 1.2010 -0.9796 -0.8741 -0.2518 -1.0675 -0.4642 -0.8371 0.3020 -0.1935 -2.1872 0.1397 0.4389
3.5297 0.8045 0.8920 -1.6537 0.6173 -1.8494 -1.9265 1.0139 1.4832 -2.9454 -0.7007 0.3812 2.9506 0.3511 -0.3603 2.3042 -0.9974 -0.1470 0.9144 -0.8332 0.4191 -0.1067 -0.8117 -0.6930 -0.9949 0.4048 -0.5712 -2.0719 0.1513 0.4455
3.8593 0.1337 1.3297 -1.9405 -0.3655 -1.7696 -1.5055 0.5698 1.6511 -3.3981 -0.0090 0.5354 2.8504 -0.5857 0.5744 2.4313 0.2763 -0.5901 1.1455 -0.2500 -1.1761 -0.0313 0.5244 -0.6298 -1.2319 -0.3846 -0.4984 -2.1792 0.0907 0.5732
3.5779 -0.7736 -0.7823 -1.2131 -1.0019 -1.5693 -2.9208 -1.0471 0.5258 -2.8587 1.2244 0.5551 3.4601 0.4816 -0.0614 2.3470 0.3600 0.9507 1.0461 0.8443 0.3575 0.0368 -0.2792 0.3795 -1.0967 0.0385 -0.5631 -2.3786 0.1530 0.2075
3.9438 -0.0780 0.6308 -0.9599 -1.0352 -1.2037 -2.3685 -0.8600 1.2636 -3.3478 0.8515 0.1279 2.8307 -0.7982 0.0402 2.1165 0.0993 -0.9439 1.2106 1.0966 -0.2515 0.0718 0.4076 0.4674 -1.1079 0.2005 -0.4530 -2.3893 0.1158 0.3224
2.1950 0.0470 1.6061 -2.0975 -0.4044 -1.5591 -1.9840 -0.1954 1.7538 -1.0012 1.4269 0.4918 2.3525 0.8721 0.4209 2.2816 -0.0145 -0.7997 0.8832 -0.0266 -1.3689 0.0957 -1.1727 -0.7700 -1.3253 -0.8122 -0.4003 -1.4001 0.2798 0.6254
4.1562 -0.2730 0.3483 -2.0724 -0.0387 -1.9502 -1.9751 1.3462 0.5817 -2.6577 -0.7325 1.2117 3.0574 0.6264 0.0471 1.8500 0.2308 0.8643 0.9723 -0.7234 0.0892 0.0709 0.0521 -0.8411 -1.3358 -0.4898 -0.7830 -2.0660 0.0018 0.4321
2.3583 1.5576 0.6803 -2.3923 -0.3395 -1.5295 -1.8941 -0.4724 1.2913 -1.1336 1.6196 0.8241 2.8759 0.2139 0.4965 1.7313 -0.7680 0.4802 1.2054 -0.9422 -0.9258 -0.2623 -1.2963 -0.8764 -1.1114 -0.0466 -0.9115 -1.3773 0.4740 0.4708
3.9430 0.9736 -0.2003 -0.5091 1.2988 -0.6655 -2.8030 -0.8102 0.9979 -3.2447 0.9330 -0.3867 2.8414 0.1672 -0.6918 2.3325 -0.6704 0.4549 1.0408 -1.3484 0.0703 -0.1313 -0.6352 0.7055 -1.0175 -0.0321 -0.3631 -2.4522 0.1236 0.0789
2.1774 1.4585 0.6044 -2.2430 -0.1536 -1.6981 -1.7192 -0.2706 1.6411 -1.4171 1.6360 0.4289 2.5777 0.1000 0.9266 2.3803 -0.7758 -0.2875 0.9871 -1.3593 -0.3045 0.0846 -0.5019 -1.1634 -1.3313 -0.5520 -0.6405 -1.4965 0.4187 0.4930
3.9539 0.4060 -0.7759 -0.8308 0.3679 -1.5621 -2.5536 -0.9930 1.0069 -3.4964 0.4561 -0.4603 2.9711 -0.6252 -0.4951 2.3990 -0.3980 0.8845 1.2100 0.5336 0.8227 -0.0545 -0.2675 0.6269 -1.0985 0.5163 -0.1380 -2.5002 0.0038 0.0905
4.2019 -0.6364 -0.1564 -1.4847 -1.1122 -1.4285 -3.6403 0.0195 -0.2598 -2.3785 0.3133 1.6037 3.6155 0.6864 -0.0327 2.2539 0.5633 0.6045 1.1996 0.2816 -0.4391 -0.0283 -0.2553 0.2534 -1.2820 0.0280 -0.5442 -2.4572 0.1117 0.3991
4.0159 -0.1633 -0.8394 -0.9331 -0.8055 -1.4734 -2.7637 -1.1747 0.5196 -3.2016 1.0505 0.3520 2.9415 -0.6931 -0.0203 2.4063 0.4094 0.8629 1.1315 0.9810 0.2889 -0.0391 0.0806 0.6089 -1.0980 0.2198 -0.4574 -2.4596 0.0953 0.1582
3.2516 0.8837 0.9190 -1.0442 1.0735 -1.2806 -2.0666 0.9922 1.3654 -3.3672 -0.6013 0.3926 3.2804 -0.3489 0.1510 2.2679 -0.2381 -0.9639 1.0916 -1.1537 -0.7111 0.0951 -0.4816 0.2080 -1.1870 -0.1583 -0.5223 -2.3216 0.0325 0.4418
3.4598 1.1167 0.2818 -1.8532 0.6065 -1.8657 -1.9193 1.2917 0.9113 -2.7472 -0.8279 0.9893 3.2773 -0.3119 0.0957 2.0051 -0.7216 0.7979 0.9508 -1.0979 -0.2149 0.1737 0.1312 -0.6245 -1.2821 -0.2148 -0.8134 -2.0650 0.0280 0.4426
3.9036 0.6220 0.3027 -1.8767 -0.5685 -1.6960 -2.6225 1.2874 0.2266 -2.2402 -0.4149 1.6867 2.6752 0.1773 0.9353 2.0312 -0.9027 0.0971 1.2679 -0.3260 -1.0744 0.0556 0.4585 -0.6267 -1.1399 -0.4467 -0.4500 -2.0541 0.1137 0.5986
3.5318 0.8809 -0.5674 -0.6614 1.4562 -0.6698 -2.3448 0.4952 1.4300 -3.4241 -0.3490 -0.3868 2.8500 0.3148 0.5822 2.4079 -1.0949 0.2624 1.1414 -1.1026 -0.5639 -0.0445 -0.7084 0.2857 -1.0588 0.0652 -0.5253 -2.3976 0.0425 0.1528
4.1830 -0.3476 0.6999 -2.0869 -1.2439 -1.4581 -2.7213 1.2478 0.5537 -1.8917 -0.6765 1.4529 2.7765 -0.0106 0.8189 2.3141 0.5637 -0.4985 0.8352 0.8624 -0.4531 0.0459 -0.3892 -0.7605 -1.4313 -0.0911 -0.8618 -2.0236 0.0851 0.5066
4.1021 0.1726 -0.1716 -1.7847 -1.3260 -1.4265 -2.8541 0.9765 -0.1927 -2.1436 -0.0919 1.6871 3.1283 -0.0006 0.8916 1.8203 -0.4306 0.2771 0.9934 0.7790 -0.0952 -0.1205 0.4015 -1.0452 -1.0721 -0.5819 -0.4053 -2.0690 0.1015 0.4809
3.9785 -0.0775 1.0762 -1.8962 -1.0102 -1.5937 -2.9409 1.0106 -0.0173 -2.3551 -0.3460 1.7122 3.4096 -0.3601 -0.2299 2.3234 0.6449 -0.5351 1.0440 0.2680 0.1734 -0.1411 0.4316 -0.7473 -1.2067 -0.5780 -0.3898 -2.2154 0.0166 0.5513
4.3036 0.4039 0.1276 -1.6826 -0.6252 -1.8226 -2.9045 0.8576 1.0369 -1.9506 -1.2111 0.9697 3.2174 -0.5371 0.3275 1.9582 0.2497 0.5910 0.8446 -0.2759 -0.2790 -0.1090 0.8457 -0.6227 -1.5436 0.4005 -0.8050 -2.1335 -0.1082 0.4765
4.1803 -0.4006 -0.4120 -1.4950 -0.2073 -1.8019 -3.0880 0.8305 0.9377 -2.5719 -1.3684 0.6298 3.1035 -0.4934 0.5567 2.3106 0.7933 0.5452 1.1807 0.7438 -0.4573 0.0381 -0.0819 0.0823 -1.2901 0.3692 -0.4815 -2.3682 -0.1851 0.4009
3.0214 -0.6051 1.3047 -1.9752 -1.0798 -1.4458 -2.4911 1.3498 0.7511 -2.0441 -0.7659 1.4730 3.0641 0.5674 0.4484 2.4949 0.2019 -0.9018 1.0625 0.6684 -1.0112 0.1401 -0.4207 -0.5171 -1.2994 -0.0192 -0.7178 -1.9732 0.1031 0.6166
3.7280 -0.4392 1.0964 -1.7553 -1.2300 -1.5067 -2.7218 1.0153 0.9475 -1.6364 -0.9488 1.3365 3.3290 0.2105 -0.1385 1.9682 0.8347 0.0493 0.8860 -0.1159 -0.4051 -0.2254 0.6549 -1.0818 -1.6050 0.0685 -0.8755 -1.9674 -0.0501 0.5779
4.3808 -0.4528 -0.6999 -1.0566 0.6449 -1.4832 -3.4093 0.3750 0.9135 -2.7365 -1.4053 -0.3395 3.3547 0.4866 -0.2864 2.3191 -0.2548 0.5219 1.1003 0.6159 0.7129 -0.1394 -0.2370 0.5857 -1.2825 0.5214 -0.0509 -2.5307 -0.2938 0.1258
3.4410 -1.1635 -0.4117 -1.2335 -0.2791 -1.7546 -2.4804 0.6697 1.2708 -3.0791 -1.2455 0.2142 3.4676 0.1053 0.2950 2.0735 0.4581 0.7576 1.2497 0.9652 -0.4035 -0.2088 1.0537 -0.0226 -0.9509 -0.2305 -0.3275 -2.2792 -0.3333 0.3823
3.6604 0.5287 1.2881 -2.1081 -1.1352 -1.4096 -2.1341 1.2804 1.0807 -1.3434 -0.8411 1.3249 2.6110 -0.3348 0.7785 2.0297 0.3049 -0.4581 0.8341 -0.4870 -0.9273 -0.2443 0.4616 -1.4016 -1.6270 0.1301 -0.8871 -1.6782 0.0924 0.6116
4.1676 0.5427 0.0920 -1.1047 1.1469 -1.2441 -2.9991 0.7486 0.7933 -2.9706 -1.3723 -0.0315 3.3705 -0.5556 -0.4240 1.9398 -0.0948 -0.5276 1.1631 -0.4786 0.7123 -0.1072 0.3365 0.8163 -1.0371 0.0190 -0.3314 -2.4224 -0.2924 0.1449
3.5622 -1.0378 0.2332 -1.3324 -0.9526 -1.6403 -2.9273 0.8294 -0.2424 -2.5267 -0.5486 1.5227 3.0469 0.0372 -0.5953 2.3565 1.0636 0.2733 0.9994 0.5772 0.7269 -0.0054 0.6505 -0.3990 -0.9637 -0.5130 -0.3056 -2.2095 -0.1059 0.4266
2.6678 -0.2025 1.5842 -1.9690 -1.6685 -0.7656 -2.3949 1.0829 0.0301 -1.3211 0.2287 1.8459 2.8522 0.5498 0.3566 2.0663 -0.1182 -0.7455 0.8940 0.7540 -1.1269 -0.3061 -0.0803 -1.5108 -0.9314 -0.7586 -0.3132 -1.5578 0.2128 0.6453
2.2979 0.1123 1.4961 -1.7188 -1.3412 -1.1099 -2.7662 0.8990 0.1497 -1.6442 0.1244 1.9710 3.0016 -0.2253 0.2708 2.3936 0.5485 -0.8752 1.2133 -0.1998 -1.4466 -0.0772 0.4484 -0.9992 -0.9042 -0.5398 -0.2140 -1.7958 0.1735 0.7573
2.0862 1.3725 0.8318 -2.2748 -0.0403 -1.6569 -1.1638 1.6315 0.3075 -1.7116 -0.1102 1.6653 2.4305 -0.0267 1.0127 2.3386 -0.7291 -0.3212 0.9934 -1.4001 -0.4735 0.0659 -0.4936 -1.2505 -1.3276 -0.5314 -0.6711 -1.4367 0.3273 0.5559

>  <OB_ATOM_TYPES> (1lstA1)
N.3 N.3 O.co2 O.co2 C.3 C.3 C.3 C.3 C.3 C.2

>  <ENSEMBLE_RMSD> (1lstA1)
0.668 0.733 0.751 0.761 0.820 0.897 0.905 0.921 0.941 1.024 1.030 1.045 1.052 1.071 1.086 1.088 1.116 1.138 1.140 1.155 1.165 1.169 1.198 1.211 1.220 1.222 1.234 1.244 1.269 1.273 1.289 1.322 1.322 1.323 1.343 1.351 1.363 1.391 1.438 1.444 1.449 1.495 1.539 1.575 1.590

$$$$
