
 OpenBabel03071213D

 48 47  0  0  0  0  0  0  0  0999 V2000
   22.1070  100.9150   12.1970 C   0  0  0  0  0
   22.9420   99.6110   10.2660 C   0  0  0  0  0
   17.1820   91.2830   10.2060 C   0  0  0  0  0
   16.8960   92.9840    8.5080 C   0  0  0  0  0
   24.8070   88.3800    2.4910 C   0  0  0  0  0
   25.5560   87.3460    4.6120 C   0  0  0  0  0
   20.0610   89.5660    8.4670 C   0  0  0  0  0
   19.1010   89.4700    6.1680 C   0  0  0  0  0
   23.0090   94.8930    6.8280 C   0  0  0  0  0
   22.8950   96.0340    9.0430 C   0  0  0  0  0
   16.2830   99.9060   12.6400 C   0  0  0  0  0
   19.9530  102.5490    7.9800 O   0  0  0  0  0
   19.8530   94.5500   12.8240 O   0  0  0  0  0
   16.7940  104.5420   10.5450 O   0  0  0  0  0
   16.9310  105.1430    8.4590 O   0  0  0  0  0
   23.0250   88.5750    6.3950 O   0  0  0  0  0
   19.1230   98.0330   10.2100 O   0  0  0  0  0
   18.3520  101.6860   12.6110 O   0  0  0  0  0
   20.0380   95.1210    8.1510 O   0  0  0  0  0
   22.7770   91.0870    8.3380 O   0  0  0  0  0
   21.2870  101.3660    9.8230 C   0  0  0  0  0
   17.9720   93.5430   10.7320 C   0  0  0  0  0
   24.2380   89.5030    4.5820 C   0  0  0  0  0
   17.8990  103.0430    9.0190 C   0  0  0  0  0
   19.8420   96.7200   12.0830 C   0  0  0  0  0
   18.2580   98.5550   12.2190 N   0  0  0  0  0
   22.2600   90.5380    5.5580 N   0  0  0  0  0
   19.0660  100.9390   10.5800 N   0  0  0  0  0
   20.1640   94.2290   10.2360 N   0  0  0  0  0
   21.4680   92.8200    7.7310 N   0  0  0  0  0
   22.4660  100.9890   10.7240 C   0  0  0  0  0
   17.8000   92.5160    9.6040 C   0  0  0  0  0
   24.4390   88.1400    3.9450 C   0  0  0  0  0
   20.3940   89.5530    6.9790 C   0  0  0  0  0
   23.0360   94.6910    8.3220 C   0  0  0  0  0
   19.4300  103.0190    9.2280 C   0  0  0  0  0
   19.0580   95.4210   12.0390 C   0  0  0  0  0
   17.4480   99.6430   11.7210 C   0  0  0  0  0
   19.9820  102.0230   10.2820 C   0  0  0  0  0
   18.8970   94.7300   10.6740 C   0  0  0  0  0
   21.1750   90.8440    6.4950 C   0  0  0  0  0
   21.8940   93.7270    8.7720 C   0  0  0  0  0
   17.1810  104.3480    9.3800 C   0  0  0  0  0
   23.1110   89.5010    5.6010 C   0  0  0  0  0
   19.0400   97.8300   11.4280 C   0  0  0  0  0
   18.3100  100.8820   11.6790 C   0  0  0  0  0
   20.6120   94.4610    9.0210 C   0  0  0  0  0
   21.8540   91.5580    7.6520 C   0  0  0  0  0
  1 31  1  0  0  0
  2 31  1  0  0  0
  3 32  1  0  0  0
  4 32  1  0  0  0
  5 33  1  0  0  0
  6 33  1  0  0  0
  7 34  1  0  0  0
  8 34  1  0  0  0
  9 35  1  0  0  0
 10 35  1  0  0  0
 11 38  1  0  0  0
 12 36  1  0  0  0
 13 37  1  0  0  0
 14 43  1  0  0  0
 15 43  2  0  0  0
 16 44  2  0  0  0
 17 45  2  0  0  0
 18 46  2  0  0  0
 19 47  2  0  0  0
 20 48  2  0  0  0
 21 31  1  0  0  0
 21 39  1  0  0  0
 22 32  1  0  0  0
 22 40  1  0  0  0
 23 33  1  0  0  0
 23 44  1  0  0  0
 24 36  1  0  0  0
 24 43  1  0  0  0
 25 37  1  0  0  0
 25 45  1  0  0  0
 26 38  1  0  0  0
 26 45  1  0  0  0
 27 41  1  0  0  0
 27 44  1  0  0  0
 28 39  1  0  0  0
 28 46  1  0  0  0
 29 40  1  0  0  0
 29 47  1  0  0  0
 30 42  1  0  0  0
 30 48  1  0  0  0
 34 41  1  0  0  0
 35 42  1  0  0  0
 36 39  1  0  0  0
 37 40  1  0  0  0
 38 46  1  0  0  0
 41 48  1  0  0  0
 42 47  1  0  0  0
M  END
>  <MOLID> (1lybB1)
1lybB1

>  <SMILES_CANONICAL> (1lybB1)
CC(C[C@@H]([C@H](CC(=O)N[C@H](C(=O)N[C@H]([C@H](CC(=O)O)O)CC(C)C)C)O)NC(=O)[C@H](C(C)C)NC(=O)[C@H](C(C)C)NC(=O)CC(C)C)C	

>  <FINGERPRINT> (1lybB1)
0000000000000011000000000000000000000001000000000111000000000000000000000001000000000000000000000000010000000000000001000000000000000000000110000000000010000000000000000000000000000000000000000000000000000000000000000000000000100000000000000000000000001000000000000010000000000000000000000000000000000000000000001000000000000000001000000000000000000000010000000000001100110000000000000001011000000000100000000000101000000000100000000010000000000001100000000001100000000000000000000000000000001000000000000000100000010000000000000000000000000000000000000000000000000000000000000000000111000000001000000000000000000000000000000000001000000001000000000000000000000000000000000011000000000100000011100001000000000011000000000000000010000011000000100001000000000000000110000000000000000000000000000000000100000000000000000000000000000000000000000000000000000000000000000001000000000000000000000000000000001000000000000000000000000000000000000000010000000000000000010010000000000010010000000000000000000000100000000010101000000000

>  <MACCS166> (1lybB1)
000000000000000000000000000000000000000000000000000011000000000000000000010000100000000011010010100000010001011000101000001000001011000100111100010010110111111110010000

>  <OB_MW> (1lybB1)
685.463

>  <OB_logP> (1lybB1)
3.4217

>  <OB_PSA> (1lybB1)
223.26

>  <OB_MR> (1lybB1)
184.656

>  <OB_ATOMIC_CHARGES> (1lybB1)
5.79561e-05 5.79561e-05 5.79561e-05 5.79561e-05 0.000503441 0.000503441 0.0022754244 0.0022754244 0.0022754269 0.0022754269 0.0333709477 -0.2206987177 -0.2207731098 -0.2455593912 -0.2455593912 -0.2733315613 -0.2732407025 -0.2714871949 -0.2714871996 -0.2714758668 0.0242891911 0.0242882116 0.0868226526 0.1485805497 0.1213934583 -0.1977052139 -0.1977780799 -0.203131514 -0.203132497 -0.1963426209 0.0017908805 0.0017908765 0.0091371307 0.0289616879 0.0289622907 0.1829985475 0.1808716919 0.172773954 0.1261580745 0.1260853671 0.1726466428 0.1726895486 0.3675066255 0.2417551171 0.2444095844 0.2612387141 0.2612376018 0.2616033053

>  <MCT_HBD> (1lybB1)
8

>  <MCT_HBA> (1lybB1)
14

>  <ENSEMBLE_TOTAL> (1lybB1)
49

>  <ENSEMBLE_COORDS> (1lybB1)
1.7681 5.1482 3.1752 2.6031 3.8442 1.2442 -3.1569 -4.4838 1.1842 -3.4429 -2.7828 -0.5138 4.4681 -7.3868 -6.5308 5.2171 -8.4208 -4.4098 -0.2779 -6.2008 -0.5548 -1.2379 -6.2968 -2.8538 2.6701 -0.8738 -2.1938 2.5561 0.2672 0.0212 -4.0559 4.1392 3.6182 -0.3859 6.7822 -1.0418 -0.4859 -1.2168 3.8022 -3.5449 8.7752 1.5232 -3.4079 9.3762 -0.5628 2.6861 -7.1918 -2.6268 -1.2159 2.2662 1.1882 -1.9869 5.9192 3.5892 -0.3009 -0.6458 -0.8708 2.4381 -4.6798 -0.6838 0.9481 5.5992 0.8012 -2.3669 -2.2238 1.7102 3.8991 -6.2638 -4.4398 -2.4399 7.2762 -0.0028 -0.4969 0.9532 3.0612 -2.0809 2.7882 3.1972 1.9211 -5.2288 -3.4638 -1.2729 5.1722 1.5582 -0.1749 -1.5378 1.2142 1.1291 -2.9468 -1.2908 2.1271 5.2222 1.7022 -2.5389 -3.2508 0.5822 4.1001 -7.6268 -5.0768 0.0551 -6.2138 -2.0428 2.6971 -1.0758 -0.6998 -0.9089 7.2522 0.2062 -1.2809 -0.3458 3.0172 -2.8909 3.8762 2.6992 -0.3569 6.2562 1.2602 -1.4419 -1.0368 1.6522 0.8361 -4.9228 -2.5268 1.5551 -2.0398 -0.2498 -3.1579 8.5812 0.3582 2.7721 -6.2658 -3.4208 -1.2989 2.0632 2.4062 -2.0289 5.1152 2.6572 0.2731 -1.3058 -0.0008 1.5151 -4.2088 -1.3698
1.4816 8.3051 2.5440 1.7792 5.8663 2.3957 -3.4580 -3.8984 0.3700 -3.7475 -2.7543 2.5317 5.7360 -7.5350 -3.8832 5.0050 -7.0589 -6.1878 -0.9509 -6.1227 -0.3241 -1.2245 -7.1250 -2.5388 1.9417 -1.1561 -3.4341 3.1007 -0.2545 -1.4369 -4.2889 2.9440 3.8370 -3.0824 7.0985 0.2291 0.0288 -1.5262 3.6003 -1.1004 8.7755 -1.8812 0.8262 8.0695 -0.8865 2.5220 -4.9686 -4.3458 -1.7068 1.6505 1.0173 -2.2937 4.9334 4.4862 -0.3911 -0.8355 -1.4414 1.9094 -4.9033 -0.1833 -0.4423 6.8307 2.9200 -1.5295 -2.7966 1.4460 3.3333 -7.2296 -4.3788 -1.1617 8.4472 0.4374 -0.3566 0.6502 2.7228 -2.0467 2.2350 3.2420 1.9391 -6.4305 -2.6361 -2.1032 5.2119 2.1831 0.3303 -1.4154 0.6890 1.0302 -3.4149 -1.7390 0.8302 7.0068 2.1307 -3.0191 -2.7261 1.2103 4.7354 -6.7876 -4.7283 -0.2061 -6.6898 -1.5101 2.5206 -1.4899 -2.0807 -1.7317 7.0671 0.6763 -0.8416 -0.7822 2.7639 -3.0744 3.2127 2.9837 -1.7164 6.6078 2.1243 -0.9306 -1.4094 1.3844 0.7719 -5.7269 -2.1542 1.5735 -2.2187 -1.1532 -0.3484 8.3970 -0.8203 2.5675 -6.0711 -3.8105 -1.4444 1.5460 2.2112 -2.4683 4.5455 3.3358 0.3909 -1.4080 -0.6905 1.3118 -4.6656 -1.2275
1.3437 9.2385 4.3805 2.0015 6.9875 3.6149 -3.7263 -4.5265 0.1263 -4.7603 -3.7420 2.2221 1.8858 -6.4721 -6.6834 4.2492 -5.8530 -6.4398 0.6266 -7.3043 0.4596 -0.2616 -7.9789 -1.7294 3.3779 -1.5359 -0.1111 2.5163 -1.8090 -2.4166 -3.3582 4.2027 2.1779 -1.1654 7.8129 -0.4707 -1.5344 -0.9666 3.2188 -2.7515 11.0314 2.0852 -2.3371 10.8666 -0.1539 4.8853 -6.6427 -3.4132 -2.2664 1.4651 -0.2544 0.1355 4.5906 1.1484 -0.7238 -3.3460 -1.3103 3.1532 -5.6163 0.0292 -0.2802 7.8289 3.1630 -2.4083 -3.1910 1.7332 2.8012 -6.0349 -4.4403 -2.4521 8.8798 1.2239 -0.8840 0.3505 1.3527 -1.6431 2.5800 1.6871 2.9215 -7.2812 -2.3890 -1.4349 6.1206 1.8727 -0.3189 -2.4264 0.7836 1.8315 -4.3003 -1.3524 1.1769 8.2088 3.2891 -3.7753 -3.4015 1.1305 3.1055 -6.6077 -5.8046 0.9999 -7.6755 -0.9554 2.1728 -1.8768 -0.9493 -1.0886 8.3432 0.8441 -1.8076 -0.7465 1.8436 -2.1634 3.8768 1.3101 -0.5697 7.2735 1.7857 -1.6864 -2.0430 1.0522 1.8134 -6.6433 -1.7096 1.5477 -3.1799 -0.4877 -2.4897 10.3514 0.9436 3.6581 -6.6804 -3.3859 -1.6880 1.5031 0.8267 -1.0228 4.8705 1.4549 0.0475 -3.0087 -0.4169 2.3469 -5.4920 -0.8859
-0.5468 7.5122 5.2248 0.0052 9.8560 4.7227 -2.8346 -4.8963 0.9656 -3.6266 -3.0864 2.4310 3.8817 -8.8590 -5.7222 5.5227 -7.0755 -5.2938 -1.0773 -7.6082 -1.3770 -1.3363 -5.9943 -3.2405 2.3713 -1.7824 -3.4192 3.2704 -1.1147 -1.2070 -2.4823 4.1008 3.1211 -1.4860 8.0530 -0.2526 -0.3329 -0.8680 2.9891 -4.1281 10.0296 0.3707 -2.8013 11.1564 1.8469 4.1431 -7.8085 -1.7983 -1.8804 1.8121 -0.0383 0.4867 4.9217 1.2473 -0.3875 -2.2480 -2.0006 1.0511 -5.7054 -0.2369 0.3096 8.1403 2.9889 -1.3280 -3.0409 1.5546 3.4336 -7.1502 -4.0005 -2.6792 8.7512 1.6899 -0.1811 0.6140 1.1456 -0.9493 2.7250 1.8893 1.8843 -7.6817 -2.2573 -1.1185 6.3095 2.1603 0.3591 -1.9941 0.1848 1.5221 -4.3401 -2.0604 -0.5525 8.5750 4.1519 -2.7551 -3.4145 1.2428 4.5023 -7.9874 -4.6592 -0.4595 -7.0677 -2.6435 2.8055 -2.2700 -2.0575 -1.3137 8.5367 1.0720 -0.9257 -0.5646 1.7356 -1.6607 3.9819 1.8565 -0.4606 7.5458 1.8331 -0.9172 -1.7826 0.8220 0.9673 -6.5939 -2.4882 1.7772 -3.1186 -1.3402 -3.1789 10.1152 1.3339 3.2214 -7.5914 -2.5793 -1.1178 1.7598 0.9204 -0.6271 5.0890 1.7405 0.4559 -2.4164 -1.1263 1.1744 -5.5244 -1.4427
-2.4914 9.9602 2.8166 -1.0941 8.6935 4.3993 -3.5900 -4.3132 1.7344 -3.7719 -2.4332 3.3170 5.7366 -7.4773 -4.1585 5.2555 -6.9334 -6.5134 0.1334 -7.9844 -1.0373 -1.5497 -6.3108 -1.7491 1.9369 -1.1779 -2.9008 3.1677 -0.8213 -0.7782 -3.7386 3.1684 3.0347 -1.0300 6.3312 -0.6265 0.3430 -1.2128 3.7004 0.8294 9.9502 1.0701 1.5879 8.2381 -0.2313 2.4639 -5.0348 -4.6727 -1.5167 1.1433 0.3234 -0.8941 4.7783 2.6757 -0.4371 -1.4575 -1.0748 1.8355 -5.5750 -0.4000 -2.4193 7.4925 2.7129 -1.5797 -3.0236 2.3483 3.3972 -7.2331 -4.9211 -0.7839 8.5327 0.1446 -0.0264 0.4917 2.0815 -1.6245 2.2163 2.3819 1.9488 -6.6926 -3.1259 -2.6856 5.4994 1.3840 0.2819 -2.2718 0.9788 1.1105 -3.8355 -1.7596 -1.6211 8.7398 2.9865 -3.0641 -2.9441 2.0861 4.8119 -6.7292 -5.0861 -0.2738 -7.0227 -2.1270 2.5381 -1.8466 -1.6879 -1.0089 7.0996 0.5739 -0.5832 -0.7579 2.7280 -2.6147 3.2041 2.0251 -2.3265 6.9082 1.3138 -0.8802 -1.8453 1.7138 0.8039 -6.0449 -2.5388 1.5948 -2.7594 -0.9343 0.6714 8.8542 0.2905 2.5659 -6.1812 -4.2489 -1.1398 1.2971 1.4799 -1.9483 4.5584 2.0858 0.3668 -2.0776 -0.3865 1.3129 -5.1598 -1.4282
1.3287 5.0825 4.0742 -0.7877 6.1668 4.7076 -2.2424 -4.6139 1.9629 -2.1240 -3.9589 4.3314 3.2879 -6.2895 -6.6840 4.3997 -4.1076 -6.4107 0.2930 -7.1939 -0.6833 -1.2670 -5.9513 -2.1563 1.7835 0.3916 -1.3105 2.1463 -1.1249 -3.1931 -4.3063 4.1903 4.1066 -1.3612 5.9923 -1.0583 -0.3279 -0.1046 3.6876 2.8952 6.6596 -0.8395 1.4088 6.1987 -2.5066 4.5966 -5.2332 -2.8807 -3.6445 1.4300 1.2748 -3.6921 6.2645 2.2587 -1.5073 -1.9650 -0.9870 1.7305 -4.5281 -0.1661 0.0501 6.3360 2.3842 -0.9232 -2.6409 2.6401 2.9539 -4.9805 -4.6211 0.6364 7.0575 -0.3817 -1.3694 1.1345 1.9590 -2.7343 2.8408 2.8830 2.4715 -6.0651 -2.5470 -1.8837 5.0137 1.5616 -0.2473 -1.2169 0.8126 0.8039 -3.1907 -1.8270 -0.0559 5.4472 3.6010 -2.1701 -3.4440 2.9136 3.9425 -5.3557 -5.6970 0.1255 -6.5143 -2.0202 1.1872 -0.7664 -2.0797 -0.3387 5.9415 -0.0684 -1.3825 -0.1635 2.7391 -3.6933 3.9106 2.7541 -0.9866 6.1144 1.2947 -1.2393 -1.3903 1.8471 1.1762 -5.4724 -2.3258 0.9133 -1.9268 -1.1357 1.6524 6.5760 -1.3707 3.4530 -5.4331 -3.2778 -2.7181 1.7848 1.9959 -3.0939 5.1907 2.1970 -0.4257 -1.7210 -0.4609 1.2863 -4.3713 -1.2976
-0.9488 8.5997 5.0136 -2.0688 6.4454 4.5956 -1.9116 -5.5128 0.7701 -3.2373 -3.9305 -0.5845 -0.4351 -5.4693 -5.6766 1.6934 -4.5177 -6.4534 1.1932 -7.2558 0.9136 0.7460 -8.6344 -1.0549 4.2139 -1.8784 -0.1711 3.1468 -2.2707 -2.3653 -3.1555 3.8944 0.8100 0.5218 7.3278 -0.4273 -1.5640 -1.5184 3.7187 -2.9202 9.9633 0.7234 -1.3780 10.6729 -0.8024 3.7578 -5.5397 -4.1297 -0.5717 1.0235 0.1859 0.1810 4.4272 2.1886 0.0359 -1.6277 -1.1316 3.5133 -5.2674 -0.1798 -1.3986 7.8791 2.7070 -2.1601 -3.1697 1.5169 1.3940 -5.1233 -4.0733 -1.6388 8.3206 -0.3375 -0.6611 0.2814 2.4671 -1.5679 2.3717 1.7875 2.4711 -6.6774 -2.5926 -1.3628 5.9008 1.3030 0.0417 -2.1544 1.1322 1.6357 -4.0689 -0.8561 -1.0216 7.4088 4.0904 -2.0387 -4.0799 0.3173 1.0640 -5.5041 -5.4965 1.6772 -7.5914 -0.4785 2.9033 -1.9239 -0.9150 -0.3849 7.9852 0.4422 -1.6284 -0.8863 2.4488 -1.6916 3.5395 0.9460 -0.6459 7.1057 1.6488 -1.3613 -1.8911 1.3403 1.7244 -6.3726 -1.3858 1.9099 -2.8168 -0.1904 -1.9296 9.7781 -0.1817 2.6653 -5.7936 -3.6301 -0.9324 1.2347 1.3389 -0.8632 4.6440 1.5769 0.5706 -2.1277 -0.1456 2.4175 -5.1997 -0.7229
0.9775 9.2938 3.1907 0.0168 8.2332 5.2007 -3.8858 -4.2363 -0.6019 -4.9334 -4.3756 1.6280 -0.1163 -7.2089 -4.8806 1.1065 -5.6022 -6.2718 2.2740 -7.3245 0.7220 4.3300 -7.8100 -0.5319 2.8666 -0.6774 -1.2554 1.9834 -2.0696 -3.0975 -3.2297 3.8170 0.8962 0.2737 6.7478 -0.4984 -2.2360 -1.8743 3.5668 -1.0338 10.3190 -0.3766 -2.4618 9.9111 1.3542 3.7350 -5.0366 -4.5441 -1.0397 0.7212 0.1615 0.1662 3.9570 2.2857 -0.9937 -2.5027 -1.4877 3.8331 -3.8481 -0.4299 -0.8079 7.5963 2.9737 -2.6300 -3.5433 1.4068 1.5433 -5.7210 -3.8380 -1.6304 8.0810 0.0214 -1.1522 -0.1088 2.4102 -1.8196 2.1082 1.8483 3.5066 -6.0023 -2.4695 -1.3329 5.6105 1.6975 -0.5910 -2.3840 0.7998 1.5751 -3.8672 -0.9875 0.4091 8.0157 3.7598 -3.9896 -3.5856 0.7555 1.2125 -6.5198 -5.0766 3.3904 -6.7131 -0.0896 1.6916 -1.4889 -1.7350 -0.3120 7.5341 0.5258 -2.1861 -1.2123 2.3128 -1.8105 3.3224 1.0618 -0.4216 6.7218 1.8033 -1.9706 -2.2006 1.1749 2.7949 -5.8857 -1.2154 1.2737 -2.4903 -0.6735 -1.7682 9.5156 0.4291 3.0311 -5.5535 -3.6803 -1.3428 0.9211 1.3334 -0.8959 4.3042 1.7712 -0.2244 -2.4601 -0.5314 2.8250 -4.4282 -0.8189
2.7206 8.8724 2.3931 1.1643 7.6896 3.9141 -5.0092 -2.3273 0.9629 -4.6404 -1.9930 -1.4498 4.7078 -4.6494 -5.4263 5.9323 -5.3431 -3.3764 2.4892 -6.7352 0.8942 1.1346 -8.5082 -0.1643 -2.4572 -4.5043 -2.4467 -1.2838 -2.5103 -3.3533 -2.6301 3.7126 3.0181 -0.1449 9.1685 0.5750 0.2374 0.0645 0.9379 -3.7391 9.3078 -0.2813 -2.7856 10.4633 1.4391 2.1227 -6.2748 -4.4700 -0.5610 1.3175 4.7113 -0.3930 4.1699 0.6929 -1.2832 -4.1450 0.6320 2.6280 -4.4084 -1.3343 1.4252 6.9697 1.4660 -3.1201 -0.9293 0.1768 4.4158 -6.9864 -4.5302 -2.2453 8.1246 1.0622 -1.2129 -0.0059 2.8329 -0.6535 2.3479 2.6480 3.1981 -6.8764 -2.4985 -0.6462 5.9014 2.2127 -0.9562 -1.9923 -0.1712 0.4099 -5.0857 -1.2821 2.0567 7.5569 2.7076 -3.9658 -2.1487 -0.1097 5.3386 -5.7993 -4.6847 2.2812 -7.5487 -0.3600 -1.1175 -3.8654 -2.7146 -0.7879 8.2628 1.4641 -1.1255 -0.0293 1.3218 -1.1191 3.6817 2.9544 -0.0851 6.9205 1.3612 -1.7823 -1.2965 0.7900 2.0619 -6.7480 -1.6238 -0.2011 -3.8027 -1.5130 -2.9229 9.4357 0.7939 3.1131 -6.6572 -3.8562 -0.7822 1.2787 3.5028 -0.6763 4.5755 1.8170 -0.8791 -3.3700 -0.2291 1.7691 -5.2803 -1.4063
0.7316 4.6631 4.1546 2.4112 6.2870 3.3667 -0.3448 -4.9987 2.6701 -2.3722 -5.3378 1.3011 0.6645 -8.3402 -4.3253 -0.1692 -6.5177 -5.7526 4.8685 -5.5354 0.0898 2.6215 -6.3867 0.6968 0.9132 -0.9669 -3.1207 1.5219 0.4467 -1.1801 -2.5401 3.6704 -0.7818 -2.2559 8.4100 2.2073 -1.5212 -0.1592 2.8372 -0.4654 10.1882 -0.1592 1.3061 8.7888 -0.4698 3.0797 -4.8894 -4.9913 -4.9099 0.6895 1.7560 -2.7485 4.1655 2.8459 -1.0586 -2.3838 -1.4523 3.9302 -3.1157 -1.2673 0.3796 5.8955 2.0370 -1.8590 -3.1059 2.2515 1.2867 -6.0030 -3.8401 0.0047 8.6553 1.5582 -2.7219 0.3375 0.8352 -3.7828 2.5031 0.9073 3.4224 -5.6138 -2.8264 -1.8284 5.4524 1.1695 -0.5334 -1.7359 0.7125 1.6164 -3.3278 -1.2931 0.9361 5.9762 3.4392 -1.2754 -4.3700 1.6645 1.0035 -7.0019 -4.9350 3.5756 -6.1071 -0.4362 1.6478 -0.9219 -1.8021 -1.2255 7.7779 1.4593 -2.4254 -0.7067 1.8903 -2.5294 3.1833 0.6503 -1.0590 6.3645 1.9934 -1.8498 -1.9606 1.2607 2.9046 -5.2959 -1.5180 1.2509 -2.0120 -0.8252 0.3653 9.1816 0.2031 2.6787 -5.4508 -3.9758 -3.9056 1.1735 1.2387 -2.4132 4.3075 1.6712 -0.2394 -2.0749 -0.5916 2.9131 -3.7979 -1.3238
3.1008 7.5749 0.1309 2.1080 6.9282 2.3050 -5.1622 -2.7495 1.4386 -5.0067 -2.7116 -1.0216 4.4517 -4.1767 -5.4873 5.8595 -4.5498 -3.4701 2.2558 -8.4258 0.0015 4.2311 -6.9575 0.2894 -2.4266 -4.9927 -2.0322 -1.6548 -2.9255 -3.1772 -2.6835 4.5351 3.6696 -0.2067 8.7934 -0.2612 -0.2569 0.1532 1.0867 -2.7647 10.5535 1.4048 -1.2515 10.0524 3.0382 2.1681 -6.0950 -4.2513 -0.9063 1.5352 4.4948 -1.8330 4.1701 0.5175 -1.3354 -4.1562 0.8696 2.6205 -3.9900 -1.0368 1.0403 6.2014 0.0811 -3.5177 -1.2647 0.3148 4.5334 -6.4629 -4.4338 -1.8676 8.3996 1.3816 -1.8617 0.0877 2.8538 -1.9337 2.4833 2.6435 3.4551 -6.3283 -2.3285 -0.6658 5.7418 1.7614 -1.2321 -2.0297 -0.0502 0.5209 -4.9735 -0.9653 2.2918 6.5353 0.8617 -4.2282 -2.5982 0.2650 5.2731 -5.1736 -4.7113 2.7604 -7.0067 -0.0488 -1.2296 -4.1653 -2.4328 -0.4581 8.0694 0.9380 -1.6352 -0.0377 1.3616 -1.5678 3.8563 2.9081 -0.3098 6.5873 0.6474 -2.1239 -1.4007 0.8967 2.3810 -6.3737 -1.3715 -0.2913 -3.8300 -1.2944 -1.8951 9.7383 2.0491 3.2434 -6.2660 -3.6875 -1.4910 1.4343 3.4194 -1.3868 4.5731 1.5876 -1.0014 -3.3918 -0.0309 1.8900 -4.9707 -1.1249
0.5761 6.8205 5.2557 1.0211 9.2283 5.0009 -3.3733 -4.6690 1.7352 -2.2922 -3.8021 3.7658 5.3598 -6.8529 -5.1354 6.5013 -5.8841 -3.1959 -0.7172 -7.5619 -3.0854 0.3347 -8.4511 -1.0521 -0.9816 -1.1275 -4.1824 -0.6926 -3.3375 -5.2080 -2.3087 4.2002 2.2616 -1.0650 7.9283 0.0679 0.1895 -1.0956 2.2687 -2.9305 10.6406 2.8764 -2.2521 10.5977 0.7025 4.5726 -6.1745 -0.8627 -2.4797 1.6000 0.1318 1.0244 4.7067 0.8011 -2.5608 -3.4440 -1.5239 1.5577 -4.2357 -1.0452 1.2113 7.7399 3.0433 -1.3969 -3.2043 1.5594 4.0250 -6.1089 -3.2038 -1.7190 8.7600 2.2038 -0.4574 0.3897 0.5479 -0.7502 2.6267 1.3021 2.4563 -6.7831 -1.5035 -0.3169 6.0321 2.1337 -0.8999 -2.1340 -0.5520 -0.0557 -4.4190 -2.7009 0.4556 8.0032 4.3264 -2.6592 -3.4828 2.3366 5.3329 -6.7390 -3.6301 0.0421 -7.1915 -1.8334 -1.1787 -2.6115 -3.9754 -0.5548 8.3766 1.3158 -0.9241 -0.7190 1.4717 -1.2421 3.9854 1.2099 0.3334 7.2943 1.8951 -1.5074 -1.9299 0.7434 1.2605 -6.3534 -2.2014 -0.4825 -3.0388 -2.6952 -2.2946 10.0907 1.8130 3.7391 -6.3574 -1.7466 -1.3621 1.5822 0.6369 -0.0487 4.9152 1.3658 -1.4542 -2.9159 -1.5452 0.9645 -4.8943 -1.8942
-0.9679 5.4911 -2.0168 1.2436 6.5629 -1.9649 -3.0910 -4.2123 1.2493 -3.4330 -3.6077 3.6106 4.3245 -6.4419 -5.6978 5.2781 -4.1897 -5.4095 -0.2025 -6.9932 -0.8267 -1.2356 -5.5418 -2.5505 2.0313 0.4474 -0.6397 2.6987 -0.9682 -2.5231 -4.7566 4.6527 3.2905 -0.0797 5.6049 3.3978 -1.3227 0.0124 3.5939 2.3519 3.4222 3.1212 3.2277 4.6204 1.3876 4.6833 -5.4351 -1.8034 -3.6506 2.0239 0.5260 -3.4498 6.8016 2.1162 -1.4090 -1.6662 -1.3457 1.2296 -4.4681 0.1678 -0.3131 6.9080 -0.0894 -1.7902 -2.3806 2.2649 3.5322 -4.9857 -3.8697 0.8364 4.3404 1.5955 -1.6711 1.4365 1.7351 -3.0000 3.2976 2.3611 2.4612 -6.0229 -1.9997 -1.9147 5.4391 1.0674 -0.6038 -0.9685 0.7169 0.9757 -3.0059 -1.6232 0.1717 5.9165 -1.1227 -3.1307 -3.0690 2.2336 4.7313 -5.3972 -4.6884 0.0251 -6.2500 -2.1203 1.5452 -0.5970 -1.6200 0.3613 5.7020 2.0519 -2.0573 0.1245 2.3851 -3.8610 4.4248 2.0940 -0.7553 6.2771 1.2097 -1.8183 -1.0826 1.4867 1.2109 -5.3116 -2.1015 0.9649 -1.7800 -0.8612 2.2685 4.1682 1.9944 3.6495 -5.4993 -2.4613 -2.8950 2.2554 1.4638 -3.0552 5.6786 1.8052 -0.4873 -1.4893 -0.5558 1.1486 -4.2443 -1.0348
0.3111 8.4715 4.5597 1.9155 6.7574 3.7619 -3.6432 -0.2620 -2.1550 -1.8620 -0.1939 -3.8513 2.0463 -5.8122 -5.2835 4.0637 -5.8649 -3.8271 1.5446 -9.5356 0.2989 3.4158 -8.0272 0.8817 0.6209 -3.1308 -3.8282 2.7501 -2.4028 -2.7985 -2.9021 3.8796 3.0137 -1.2451 9.9921 2.2214 1.1558 0.0621 1.1039 -4.6770 7.0326 2.0374 -3.4827 7.0561 0.0950 0.4563 -7.8062 -3.1628 -0.3862 1.4474 4.0045 -0.8916 5.0474 0.7234 -1.2622 -3.2202 -1.1182 2.2066 -5.2798 0.7199 0.5702 8.0046 2.0629 -1.3200 0.2946 -1.4886 2.6697 -7.9337 -4.0781 -3.1855 8.8067 1.7242 -1.0448 0.4524 1.9272 -0.8844 2.8190 2.2023 2.2855 -7.4128 -1.7841 -1.1604 6.3605 2.6122 0.2285 -1.4691 -0.8264 0.7960 -4.9804 -1.0886 1.2160 8.0502 3.4316 -2.1830 -0.5343 -2.4163 3.1614 -6.6629 -4.7335 1.9416 -8.1024 0.5575 1.6603 -3.4469 -2.7788 -1.8483 8.7160 2.4236 -0.1534 0.4326 0.7024 -1.4026 4.0001 2.8529 -0.8986 7.6221 1.9577 -0.7362 -0.5119 -0.3421 1.5150 -7.2021 -0.5839 1.1145 -3.6047 -1.3755 -3.7532 7.5341 1.1857 1.6655 -7.7021 -2.9821 -0.7269 1.6086 2.8368 -1.1197 5.1615 1.9247 -0.1177 -2.7786 -1.0891 1.5757 -5.7314 -0.2312
-1.4539 4.1376 -0.3561 -3.2837 3.0626 0.9345 -4.4201 -0.4949 0.3127 -4.0233 -0.5199 -2.1173 4.8519 -5.2704 -5.2202 6.0458 -5.3523 -3.0397 1.3946 -8.4532 -0.2745 2.9983 -6.9342 0.8483 -1.9512 -3.3533 -2.8612 -0.4504 -1.4416 -3.3820 -1.2460 3.5094 5.7913 -1.9190 7.7420 -0.1207 0.5381 1.3129 0.5284 1.0221 9.1063 -0.0014 -0.4845 10.4106 1.1083 2.3469 -7.0205 -4.1582 1.2100 1.8331 3.8783 -2.7653 5.2262 4.2729 -1.3359 -3.2575 0.2826 2.8321 -4.0903 -0.9409 -3.1108 5.5306 1.0090 -2.2071 0.1771 -0.6036 4.6915 -7.3351 -3.7666 -0.3035 8.0661 1.6383 -0.3134 0.4898 2.6189 -0.9756 2.5732 3.5862 3.2221 -6.6197 -2.0419 -1.1980 5.3249 2.5678 -0.2710 -1.2324 -0.0878 0.5710 -4.4067 -1.3619 -2.8517 4.2933 0.1828 -3.3940 -0.7449 -0.7649 5.5299 -6.1559 -4.2061 1.7960 -7.0147 -0.0621 -0.5248 -2.8616 -2.8814 -1.0842 7.0618 0.8083 -0.6296 0.8512 1.1849 -0.8305 3.7814 4.3627 -1.9533 6.2091 1.7145 -1.2541 -0.3264 0.4599 1.9754 -6.3094 -1.3904 0.2129 -3.0271 -1.5716 0.0388 9.3258 0.9025 3.2872 -6.9688 -3.3726 0.0806 1.7010 3.4159 -1.7262 4.8333 3.7487 -0.5647 -2.5538 -0.3618 1.8805 -4.8146 -1.2127
-2.6931 5.0951 -0.9024 -3.5853 5.9253 1.2397 -3.1278 -2.8896 -1.0538 -1.7211 -1.2948 -2.2997 2.9667 -4.7555 -5.2670 4.8678 -4.2306 -3.7951 -1.4540 -7.9731 -1.2975 -1.1898 -7.2352 -3.6252 3.8265 -4.5578 -0.1840 3.1255 -3.8544 2.0797 0.1925 4.8401 3.9693 -1.4432 9.0755 3.1875 -1.0165 -0.4242 2.7876 -4.9477 10.0395 0.5625 -4.6830 9.7863 2.8129 3.8849 -8.0937 -3.6794 1.2739 1.9421 2.9874 1.3419 6.4040 0.9626 1.6380 -2.4902 -1.1050 1.1001 -7.3030 0.2368 -1.8226 7.2556 -0.0770 -1.6957 -1.3083 0.1853 3.1848 -5.8716 -3.0770 -2.7706 9.6786 1.3291 -0.3952 1.3737 1.3366 0.1569 3.6277 1.8470 1.9627 -7.8442 -2.4400 -0.7283 6.5492 1.9916 0.4603 -2.2372 0.8819 0.9098 -5.1899 -0.7166 -3.0188 6.3281 -0.0981 -1.8117 -2.1534 -1.0632 3.9387 -5.3242 -4.2629 -0.4785 -7.8506 -2.4437 2.7565 -4.6816 0.8718 -2.1726 8.5221 2.1003 -0.1402 -0.0627 1.7339 0.7506 4.7294 2.5675 -1.2345 7.6825 1.2531 -0.2536 -1.0218 0.5645 0.7809 -7.0627 -2.1515 1.3515 -4.3738 0.3892 -4.2188 9.8226 1.6836 3.0552 -7.3706 -3.1344 0.4528 2.3132 2.1546 0.5010 5.9755 1.7500 1.1820 -2.9423 -0.0600 0.9412 -6.5692 -0.7326
-2.8274 8.5913 -0.9889 -0.6315 8.0913 -1.9862 -3.5405 -2.4747 -1.7348 -4.6205 -2.8031 0.4467 3.9941 -9.3293 -2.7125 4.4346 -8.8232 -0.3406 2.1983 -3.8392 -4.9645 0.2432 -5.3168 -5.0604 3.6017 -0.3328 0.2578 4.3620 -1.3400 -1.8442 1.9232 3.5139 2.1262 -2.9669 5.6110 2.9282 -1.6876 -1.9845 2.9355 -3.2946 7.9072 5.0246 -3.2938 9.6237 3.5203 0.6953 -8.0303 -1.0675 0.6240 1.1176 0.8220 -0.7458 3.6342 0.3432 0.2774 -0.6949 -1.7277 0.6958 -4.4909 -0.7431 -1.0565 7.5200 0.3542 -2.1788 -2.5449 0.3169 2.9338 -7.3704 -1.6521 -1.8567 7.7103 3.1949 -0.2228 -0.1603 2.6642 -0.0942 2.2198 2.7285 0.9845 -6.3850 -2.6486 -0.4610 5.5510 1.6126 0.0902 -1.7616 0.3347 2.1150 -3.0190 -1.8405 -1.6802 7.6100 -1.0145 -3.4937 -2.1008 -0.2732 3.3983 -8.7904 -1.4364 1.0619 -4.4241 -4.1578 3.1446 -0.8870 -1.0726 -2.5164 6.7566 2.2204 -1.4190 -0.8852 2.0733 0.4470 3.5322 2.4530 -1.5752 6.3198 1.1119 -1.2659 -1.3756 0.6346 1.6085 -5.1014 -2.9074 2.1231 -1.9840 -0.8336 -2.8946 8.5304 3.8903 1.4338 -7.3180 -1.7426 0.1291 1.1089 1.9440 -0.3292 4.2036 1.3463 0.7360 -1.3895 -0.8279 1.3974 -4.1960 -1.7068
-0.5828 4.4133 -0.9283 -2.8609 3.5320 -0.4370 -3.9185 -0.0771 -1.9403 -2.2916 -0.1698 -3.7870 4.5086 -6.3248 -5.5055 2.4307 -5.2359 -4.7983 2.1936 -8.5928 1.0492 4.1288 -7.0650 1.2660 0.5777 -2.4477 -3.4724 2.6300 -1.5266 -2.4460 -3.1050 3.4725 4.8677 -0.2554 7.5959 -0.3340 0.5349 1.5416 0.5404 -1.6831 8.3839 3.9380 0.5388 7.8949 3.7533 1.1063 -7.2483 -2.6445 -0.0607 1.7359 4.0574 -3.7257 5.2803 2.8824 -1.2473 -2.9101 -0.6988 2.5986 -4.3233 1.0230 -2.4537 5.9868 -0.2344 -1.5495 0.5510 -1.5505 3.3091 -7.2483 -3.5712 -0.7558 8.4817 1.7975 -0.9019 0.5321 2.1732 -1.9630 2.5180 2.9749 2.8945 -6.5914 -1.3132 -1.5936 5.2304 1.9785 -0.0112 -0.9661 -0.4149 1.0860 -4.3314 -0.7306 -2.0600 4.7067 -0.9329 -2.4837 -0.3672 -2.3040 3.6552 -5.9734 -4.3101 2.6311 -7.1496 1.0861 1.6548 -2.6787 -2.4407 -0.5494 7.2132 0.9992 -0.7758 1.0433 0.7553 -2.1035 3.7189 3.7622 -1.7834 6.3377 1.0781 -1.1161 -0.0562 -0.2329 2.1068 -6.3976 -0.1198 1.1520 -2.9276 -1.0358 -0.5280 8.2124 3.2511 2.3026 -7.0277 -2.4800 -0.9009 1.6588 3.1658 -2.5920 4.8106 2.8372 -0.1819 -2.3027 -0.7062 1.9943 -4.9129 0.1326
-0.2954 4.7080 -0.8759 -2.5794 3.7371 -0.6497 -3.8150 0.0059 -2.1686 -2.1054 -0.1221 -3.9441 4.4280 -6.6701 -5.4216 2.3817 -5.4817 -4.7809 1.9769 -8.5041 1.2539 4.0569 -7.1654 1.3306 0.7870 -2.4697 -3.5270 2.8207 -1.5787 -2.4365 -3.3790 3.3834 4.6378 -0.1476 7.8778 0.0354 0.5898 1.5668 0.4684 -1.9183 8.2254 4.2604 0.3008 7.7025 4.1501 0.9902 -7.3419 -2.5104 -0.1702 1.7837 3.9395 -3.8903 5.1831 2.6046 -1.1676 -2.8677 -0.8381 2.7680 -4.2976 0.9404 -2.2660 6.1898 -0.2740 -1.4641 0.6243 -1.6880 3.1758 -7.4725 -3.4680 -0.8715 8.5068 2.1931 -0.9216 0.5551 2.0355 -2.0747 2.4984 2.8142 2.8271 -6.7067 -1.2350 -1.6654 5.2727 1.9624 0.0615 -0.9145 -0.5685 1.1534 -4.2991 -0.7212 -1.7747 4.9606 -1.0018 -2.3689 -0.2964 -2.4701 3.5756 -6.2407 -4.2512 2.5532 -7.1115 1.1929 1.8133 -2.7023 -2.4452 -0.5615 7.3407 1.2806 -0.7306 1.0759 0.6296 -2.2984 3.6738 3.6212 -1.7783 6.4482 1.1380 -1.0470 -0.0098 -0.3798 2.0695 -6.3912 -0.0484 1.2451 -2.9034 -1.0573 -0.7303 8.0919 3.6232 2.1969 -7.1649 -2.3727 -0.9868 1.6782 3.0293 -2.7346 4.7764 2.6839 -0.1008 -2.2627 -0.8138 2.0720 -4.8916 0.1231
-1.8294 8.4515 3.0272 -0.3634 7.8807 4.9504 -5.0519 -1.9235 1.3869 -5.0113 -1.6003 -1.0539 5.9062 -5.8393 -4.6666 4.6557 -4.4570 -6.2814 2.6364 -8.2759 -0.5102 4.0124 -6.2729 -0.0283 -2.7034 -4.1759 -2.1123 -1.6829 -2.1159 -3.0688 -0.5486 3.8408 5.5513 -0.2066 8.1182 0.0647 -0.5832 1.1398 0.6705 -0.1245 6.2343 -2.7801 -2.1921 7.0359 -2.2341 1.3258 -5.4546 -4.3411 1.0266 1.4284 4.0739 1.1190 4.1995 3.0925 -1.3958 -3.6433 0.9186 2.4142 -3.7747 -1.1364 0.5035 7.4611 2.6465 -3.3006 -0.4965 0.3488 3.4905 -6.2203 -5.0035 -0.8294 5.8902 -0.5830 -0.5493 0.1137 2.8444 -1.1270 2.2485 3.7747 2.8729 -6.0896 -2.7188 -0.7863 5.3605 2.4650 -1.0861 -1.5022 0.0859 0.2447 -4.5933 -1.0768 -0.4103 8.3055 3.5059 -4.1617 -1.7296 0.1863 4.5820 -5.1772 -4.9590 2.6284 -6.7741 -0.3646 -1.4161 -3.4591 -2.4386 -0.8416 6.9294 0.5264 -1.3688 0.4298 1.6106 -0.9943 3.6454 4.1228 -0.0896 6.3997 1.7398 -1.9741 -0.8249 1.0042 1.9990 -6.1134 -1.5734 -0.4401 -3.3441 -1.2897 -1.1575 6.4635 -1.9292 2.4285 -5.8736 -4.0059 -0.1061 1.3358 3.6101 -0.0898 4.3961 3.1737 -1.0333 -2.8832 0.0252 1.6092 -4.6935 -1.2505
-2.1540 9.7174 -0.7329 -3.7608 8.0931 0.1438 -1.8274 -3.6277 -2.1351 -3.5873 -3.3223 -0.4385 -0.0869 -7.7564 -4.9237 0.8709 -5.6828 -5.8443 0.4392 -6.9885 1.0036 1.8918 -8.8142 0.2364 4.5298 -2.2971 -1.9413 4.4297 -1.0221 0.1864 -4.2189 3.9499 2.2182 -0.9163 6.3667 3.7770 -1.4989 -1.2089 2.4009 -0.0087 8.9589 5.0126 0.0860 10.5244 3.3582 3.7729 -6.7230 -3.8392 -1.6006 2.0976 2.1108 -1.6608 4.5101 -0.3854 1.5763 -1.5185 -1.8685 4.0332 -5.4237 0.3003 -1.3079 7.6337 0.2498 -1.2519 -2.7499 0.1018 1.4099 -6.3701 -3.5418 0.2387 8.1789 2.8101 -2.3642 0.2641 0.7385 -3.2830 2.4337 0.5440 2.8313 -7.1632 -1.7818 -2.3241 5.7586 1.4398 0.8397 -1.5290 0.3325 2.4693 -4.1196 -0.8184 -2.3880 8.6898 0.3489 -2.2962 -2.7687 -0.9875 1.1289 -6.8632 -4.9396 1.8167 -7.3250 0.4828 4.1542 -2.3470 -0.4807 -1.0421 7.3691 2.7720 -1.1483 -0.4833 1.2348 -3.6191 3.8101 0.8369 -1.2143 6.6835 1.4284 -0.5864 -1.3913 0.1619 2.1164 -6.4678 -0.7349 2.7438 -2.8394 -0.2090 0.0780 9.3572 3.7203 2.7925 -6.7706 -3.1023 -2.3461 1.6858 1.2285 -2.4162 4.6963 0.5671 1.6690 -1.9018 -0.7070 2.9902 -5.3037 -0.3344
-1.1787 7.7684 -1.8813 -1.2555 5.2795 -1.9922 -4.7712 -2.2910 3.7363 -4.6832 -3.7790 1.7773 4.1819 -7.7814 -5.7624 5.7239 -8.4615 -3.9645 2.2867 -2.0605 -4.3460 0.4385 -3.7104 -4.3196 1.1062 -5.1259 2.5792 -0.9304 -6.1015 1.5580 0.7002 4.5769 2.5583 -3.2278 8.4544 2.0261 -1.2313 -0.0591 0.0913 -0.0488 8.8883 3.6565 -1.0641 10.5757 2.5012 4.6565 -5.5608 -1.8888 1.5410 1.5205 1.3325 -2.6077 4.0333 1.8995 0.9837 -2.2995 1.3704 1.0755 -5.8864 -2.0717 -3.0474 6.5109 -0.7231 -3.3545 -1.7138 1.7948 5.0599 -6.0970 -4.1844 -0.8400 8.3703 1.5259 -0.1805 0.1471 2.2624 -0.4268 2.4953 2.1034 3.1839 -4.8056 -3.5276 -1.3986 5.7601 0.9438 -1.2729 -2.6411 0.9162 1.4807 -4.2248 -0.5098 -2.0619 6.5474 -1.8709 -3.8825 -2.8416 2.6476 4.5996 -7.5286 -4.3358 1.4871 -3.0106 -3.4877 0.4129 -5.4739 1.2829 -2.2567 8.0926 1.0607 -1.4225 -0.2305 1.4848 -0.2020 3.8264 1.6034 -2.5020 6.6447 0.6835 -1.8411 -1.6538 1.8134 2.3804 -3.9418 -2.6929 0.2854 -4.3366 0.2931 -0.6998 9.4134 2.5897 4.3007 -5.4651 -3.0585 0.4177 1.4471 1.8198 -1.5443 4.5214 1.5299 0.0656 -2.9868 0.9326 1.5642 -4.8053 -1.7579
0.6944 8.9985 5.0568 0.5470 9.3906 2.6321 -3.7564 -2.8839 -0.2123 -3.7262 -2.4612 2.2102 3.9026 -9.2463 -2.6238 5.1866 -7.9099 -0.9995 0.1812 -5.0193 -5.2191 -1.2731 -6.5339 -3.9474 2.8835 0.1913 -2.5691 2.8989 -1.4707 -4.3730 1.8029 4.5736 -0.6906 -1.9356 6.2104 4.8032 -0.2531 -0.6149 2.6487 -4.6621 4.9916 4.4388 -4.3305 3.7497 2.5552 1.4312 -7.5888 -0.0434 0.0820 1.6742 -1.1420 -0.3383 6.7129 -0.1869 -0.7738 -1.0293 -2.5283 0.8038 -4.2214 -0.8154 0.2772 7.1088 3.5528 -1.6781 -2.1581 0.8944 3.0031 -7.1008 -1.7994 -3.1978 5.8661 2.8261 0.5514 0.9853 1.1127 0.1654 3.2558 0.5425 0.6558 -6.6519 -1.9970 -0.1069 5.5513 1.7992 0.1564 -1.3315 -0.4153 1.2657 -3.1556 -2.8250 0.0073 8.5751 3.7815 -3.1785 -2.0131 0.8767 3.8029 -8.3268 -1.4325 -0.3511 -5.3422 -3.8423 2.0503 -0.8415 -3.2933 -1.8386 5.7119 3.4772 -0.6108 0.0727 1.4566 0.3526 4.4214 -0.2901 -0.7855 6.4718 2.6816 -0.9861 -0.9212 0.3608 0.8109 -5.5061 -2.8723 1.4967 -1.8346 -2.2872 -4.0983 4.7396 3.2327 1.6373 -7.1541 -1.1732 0.2127 1.9782 0.0383 -0.0826 5.6804 0.4299 0.1562 -1.3463 -1.7952 0.9479 -4.2478 -2.0345
-1.8159 9.3513 -0.1972 -1.2114 8.9027 2.1355 -0.5474 -5.7032 0.9369 -2.5125 -5.0753 -0.4158 1.0727 -8.6751 -3.2083 -0.2668 -7.1760 -4.6365 5.0595 -3.9626 0.2127 3.1727 -5.2641 1.1519 1.0690 -1.0818 -3.6061 0.5745 0.7600 -2.0247 -2.8943 3.5019 3.3982 1.2040 4.9288 2.0812 -2.9903 -2.0377 3.1818 2.1343 9.2747 1.7298 2.4691 7.7064 3.3500 3.1151 -5.5395 -4.6994 -4.0600 0.8868 3.5119 -2.6674 4.0390 -0.2401 -1.2175 -2.1671 -1.8453 3.7468 -2.3991 -1.8495 -1.5785 7.0306 0.5704 -1.7286 -3.6047 1.4327 1.4429 -6.2321 -3.1170 1.5392 7.0770 1.1972 -3.6856 -0.4385 1.5595 -3.2547 1.9024 1.5713 3.5603 -5.2883 -2.4581 -1.5064 4.8568 1.5825 -0.8587 -1.5815 0.3721 1.5289 -2.8705 -1.3491 -1.0385 8.4299 0.7118 -1.3125 -4.5528 0.3333 1.0881 -7.3987 -4.0109 3.9830 -4.9772 -0.0854 1.3007 -0.5511 -2.2112 0.5181 6.1537 1.8267 -2.5436 -1.2984 2.0578 -3.3277 3.2993 1.9595 -0.6778 5.8591 0.9263 -2.0349 -2.1991 0.9450 3.0797 -4.6514 -1.2534 0.9990 -1.5462 -1.1031 2.0877 8.0164 2.2317 2.7714 -5.6530 -3.5254 -3.7039 0.8450 2.3384 -2.4650 4.0768 0.9721 -0.4800 -1.7980 -0.9368 2.8634 -3.1759 -1.5049
-0.4731 8.2181 -2.1957 1.1029 7.0287 -0.6989 -5.4255 -2.0366 3.0343 -6.2121 -2.7384 0.8129 4.8329 -6.1821 -6.1797 5.7242 -7.9799 -4.7464 4.2581 -3.8120 0.2122 3.1807 -2.4456 -1.5511 -0.6665 -6.3128 0.7606 -2.7544 -5.9806 -0.5310 0.3084 3.3379 3.3074 -1.4634 9.1555 0.6511 -1.6448 -0.2337 -0.5987 -2.4008 9.9332 4.2081 -0.5843 10.6448 3.0279 5.2786 -6.2956 -1.5476 1.3383 0.8949 1.0018 -2.3275 4.1476 1.5720 -0.3157 -3.3027 1.2809 0.8988 -5.8906 -2.6879 -1.4242 6.6275 -0.5494 -4.1733 -1.3745 1.0038 5.4692 -5.6839 -3.8505 -1.3217 8.3308 2.8996 -0.6729 -0.2497 1.6114 -0.5859 2.1275 1.4025 3.5499 -5.1172 -2.5704 -0.5972 5.6913 1.5547 -2.3052 -2.7283 0.2241 0.4361 -4.1105 -1.2980 -0.2245 6.9577 -1.4077 -4.9892 -2.4670 1.6555 4.8849 -6.7270 -4.7745 3.0354 -3.6550 -0.6568 -1.2587 -5.7781 -0.5203 -0.8780 8.1440 1.4598 -1.9387 -0.3458 0.7837 -0.0385 3.3911 1.8361 -1.3270 6.7822 0.9552 -2.6836 -1.6351 1.0923 2.7128 -4.9391 -1.4033 -0.9101 -4.3356 -0.8229 -1.3621 9.7616 3.3534 4.7724 -5.7533 -2.5242 0.1502 0.9701 1.2986 -1.1316 4.4177 1.6397 -1.1116 -3.4102 0.3534 1.2682 -5.0414 -1.8784
2.0763 7.5899 2.6053 3.3770 5.7995 1.4815 -5.5445 1.6678 -0.2785 -5.2755 1.1465 -2.6716 5.9001 -6.0264 -4.3955 5.5089 -8.3382 -3.6480 2.3381 -4.9053 1.4155 3.2674 -2.9006 0.2785 -2.3465 -4.7928 -1.9491 -2.9165 -3.1636 -3.7298 0.4951 2.5925 5.4263 -1.1918 4.3956 0.0993 -0.1338 1.3168 -0.4439 -3.6050 3.4963 1.9060 -4.4472 5.1475 0.5705 3.0377 -7.3240 -1.1379 1.1839 0.6209 2.2433 -0.5810 4.9415 4.3718 -2.3686 -2.3796 -0.1850 1.5310 -3.6113 -3.2080 1.0754 6.2825 0.6848 -3.2833 1.4384 -1.2516 5.0389 -6.4526 -2.1254 -2.4422 5.5199 1.8635 -1.1023 0.4111 1.5749 -0.4273 1.9295 3.2870 3.1838 -5.0580 -1.6507 0.4859 4.5852 2.3382 -1.8506 -0.5166 -1.4640 0.1070 -3.1504 -1.4436 2.3231 6.8634 1.3075 -4.7054 0.9301 -1.2919 5.0094 -6.9165 -3.5633 2.1584 -3.9238 0.2858 -1.8104 -3.7248 -2.8721 -1.2731 5.5601 0.9021 -1.3408 1.1681 0.2850 0.5003 2.8254 3.9341 0.0277 5.7771 1.6568 -2.3934 0.4492 -0.5387 1.9439 -4.6314 -1.0417 -1.0211 -2.6306 -2.1797 -3.6054 4.7328 1.3531 3.6394 -6.3571 -1.5932 0.0228 0.9948 2.3784 0.0530 4.2270 3.6016 -1.8258 -1.8622 -1.1566 1.2068 -3.7433 -2.0310
-3.5580 8.8990 0.0093 -3.7975 7.6485 2.0938 -3.8090 -4.7133 1.2816 -4.1444 -2.6214 2.5084 2.4912 -9.5584 -2.1883 0.3737 -8.7739 -3.1805 4.8567 -4.5200 0.0599 6.2219 -5.2445 -1.8493 0.1012 -2.6115 -4.3194 -0.3459 -0.4581 -3.1841 -2.7590 3.8631 4.2883 0.8460 6.1459 2.7677 -0.5715 -1.2969 3.0488 1.4411 10.2196 1.5811 2.1759 8.7224 3.1340 2.8176 -6.6873 -5.0046 -0.9472 1.8872 2.4662 -2.5680 3.9705 0.6134 -1.0638 -3.4465 -1.5799 3.5822 -2.6642 -3.3217 -1.9665 7.0953 0.4625 -1.9473 -3.1156 1.4715 2.1933 -7.1640 -2.7302 0.7635 8.0003 1.2989 -2.4166 -0.0049 2.2626 -3.2508 2.1757 2.6154 3.9098 -5.5786 -3.3146 -1.8463 5.4301 2.2477 -0.2362 -2.0602 0.0830 1.7735 -3.4243 -2.0718 -2.7937 8.1882 1.1021 -3.4460 -3.2495 1.3264 1.8693 -8.5783 -3.1506 5.0313 -4.4109 -1.4353 0.6162 -1.6146 -3.3092 -0.0574 7.0819 2.1811 -1.1683 -0.7603 1.8813 -3.2774 3.5956 2.8921 -1.0732 6.2889 1.3841 -1.4461 -1.8285 0.8445 3.7279 -4.7644 -2.1326 0.9827 -2.2142 -1.9600 1.5267 8.9853 2.1323 2.9821 -6.4675 -3.8073 -2.0907 1.4439 2.4598 -2.5252 4.3242 1.7906 -0.2313 -2.6459 -1.1654 3.0535 -3.4882 -2.5835
-3.4885 2.8933 2.0155 -1.7922 2.4382 3.7795 -3.3855 -0.7928 2.7086 -4.6846 -0.9763 0.6225 7.1904 -6.3167 -2.0051 5.7526 -4.5953 -2.9947 0.2442 -7.9330 -2.3902 0.5900 -6.6115 -0.3183 -3.1999 -2.7158 -2.4194 -1.9913 -0.9871 -3.7322 2.8461 4.8113 3.2646 -4.1554 5.8205 1.4456 -0.1229 1.9603 -0.4675 -1.1515 7.1144 -0.9125 -0.2040 8.1519 0.8860 3.4061 -6.5703 -4.3704 2.9457 2.3606 0.9198 0.3954 5.8328 4.0187 -1.0509 -2.8809 0.0904 2.0575 -3.3930 -2.5047 -2.7757 4.7450 3.5787 -2.5450 0.2440 0.6138 4.8824 -6.9279 -2.5296 -2.4899 7.4145 0.9960 1.0705 0.9482 1.3694 1.4177 3.0033 2.5463 2.7060 -6.0169 -2.2226 -0.7214 4.9182 2.2076 -0.7133 -0.7204 -0.6831 -0.1957 -3.8716 -2.3218 -2.9898 3.2622 3.3852 -3.2963 -0.9238 1.2086 5.7760 -5.7944 -2.0760 0.3409 -6.5455 -1.8059 -1.9102 -2.3611 -3.1183 -2.7513 5.9504 1.2803 -0.2770 1.2500 0.7494 1.6145 4.4308 2.4720 -1.9999 5.5042 2.5211 -1.0600 -0.0358 0.5438 1.3426 -5.7045 -2.5726 -0.6629 -2.5063 -2.2734 -1.1557 7.6040 0.3495 3.5980 -6.4838 -3.1618 1.9111 2.1791 1.5556 0.3829 5.1231 3.0159 -0.8373 -2.0905 -0.8243 1.1375 -4.2053 -2.4399
1.3328 5.7095 1.8608 1.0586 3.8457 0.2360 1.0740 -1.2531 5.2626 3.1067 -1.4043 3.8838 4.5267 -4.0166 -2.2526 3.9788 -1.8398 -3.2704 0.0260 -7.9090 -5.0417 1.0265 -8.2085 -2.7990 1.9336 -5.6271 1.6500 -0.4127 -5.5135 2.4475 -4.3869 3.2995 0.5110 0.2018 8.7679 0.3531 -1.9627 -1.4333 2.7230 -2.3289 10.9830 0.8813 -1.6703 10.0768 2.8682 0.8710 -3.5177 -4.8858 -2.1894 1.7033 2.9260 -2.5614 4.6871 -1.2070 1.7920 -3.1162 -0.2523 -1.6628 -5.0782 -2.1582 0.4069 6.1467 -0.4773 0.9413 -2.1772 2.9805 3.1565 -3.9260 -4.3025 -2.1037 8.6596 0.9509 -1.3806 0.2737 1.1525 -2.1126 2.4874 0.7442 1.4433 -5.4609 -3.7412 -1.6922 5.6309 0.7304 -0.1731 -2.5409 0.8330 0.4070 -5.3887 -1.1626 1.3120 5.3204 0.4065 1.6203 -1.1522 3.8591 3.4738 -3.2343 -2.9984 -0.0111 -7.4599 -3.6011 0.4808 -5.7128 1.2490 -0.7821 7.9148 0.9261 -0.8820 -0.6517 2.2389 -2.9713 3.6345 0.9253 -0.9094 6.6559 0.0834 0.2667 -1.5336 1.7799 0.1097 -5.9529 -3.5043 0.0804 -4.7962 0.1125 -1.9958 9.9551 1.6979 1.6936 -4.2495 -4.3467 -1.9300 1.5475 1.7374 -2.4063 4.6906 0.0106 0.6886 -3.4113 0.1949 -0.4841 -5.4247 -2.2150
-3.5826 3.2145 0.7624 -3.1002 2.8348 3.1723 -3.5500 -1.5523 4.0774 -4.8600 -2.2813 2.1223 4.3723 -8.1228 -5.2433 2.5821 -8.6955 -3.6489 5.1335 -2.1056 -2.9635 3.8031 -2.5347 -5.0095 0.0659 -5.2981 0.3334 -1.8497 -4.9231 -1.1890 1.9137 4.6629 3.6659 -4.1589 6.3504 0.0325 -1.0453 1.0668 -0.0093 -0.0682 7.2115 -0.7316 -0.2797 8.4812 1.1518 3.1032 -5.9403 -1.2567 1.8839 2.3324 0.8546 -0.5890 5.8109 3.8522 0.6846 -2.5095 1.1782 0.8720 -3.5228 -3.7838 -3.5984 5.1598 2.4093 -3.0296 -0.6601 1.8290 4.2759 -6.9772 -3.0645 -2.2464 7.7121 -0.0012 0.4368 0.7176 1.8583 0.5358 2.9718 2.6375 3.3774 -4.7794 -3.2515 -1.2192 5.1030 1.7381 -1.3081 -1.6083 0.3992 1.1279 -2.7970 -1.5914 -3.8355 3.6858 2.1704 -3.4906 -1.8717 2.6043 3.4513 -7.5821 -4.1782 3.7492 -2.3424 -3.5129 -0.3957 -4.6188 -0.9318 -2.7577 6.3118 0.2678 -0.9861 0.6574 1.3464 0.8893 4.3705 2.5936 -2.4562 5.8445 1.6820 -1.5505 -0.7406 1.5283 3.0639 -3.4628 -2.7612 -0.1486 -3.1266 -1.0076 -0.7748 7.8520 0.2285 3.5197 -5.8595 -2.4078 1.0309 2.0872 1.7023 -0.3746 5.1653 2.8302 -0.1853 -2.4062 0.3187 1.5685 -3.2857 -2.8031
-2.9914 3.5408 0.3701 -2.9880 2.8756 2.7793 -4.7355 -0.5512 3.5141 -5.7155 -1.5831 1.5058 4.0898 -5.1190 -6.7132 5.2610 -7.1242 -5.9428 4.5024 -3.6649 -0.0073 3.6914 -1.8362 -1.4858 -0.8184 -5.9571 0.3416 -2.8806 -5.1201 -0.7328 2.2633 3.9713 3.7914 -2.9858 7.2655 0.2684 -0.8142 0.6305 -0.0950 -0.7724 9.2902 -1.3113 -0.2286 7.2518 -2.1780 4.4851 -6.3181 -2.3965 1.8853 1.3382 1.3003 -0.3811 4.9678 4.1535 -0.8269 -3.2778 1.6941 0.7532 -3.9547 -3.0982 -3.0121 5.3018 2.2144 -3.6044 -0.3113 1.3339 5.0312 -5.1917 -4.4400 -0.6241 7.5181 0.1946 -0.0467 0.2169 2.1570 0.6547 2.3421 2.9939 3.4252 -4.3196 -2.9308 -0.5761 4.9810 1.8339 -1.9518 -1.7827 0.3297 0.5644 -3.5675 -0.8227 -3.4058 3.9136 1.7696 -4.4296 -1.2291 2.2039 4.3481 -6.0016 -5.5159 3.3277 -3.1207 -0.7837 -1.3739 -5.0712 -0.7484 -1.7688 6.5349 0.3627 -1.2322 0.4195 1.2392 1.1560 3.6811 2.8084 -1.6982 5.8809 1.7330 -2.1655 -0.7720 1.3407 2.7111 -4.1751 -1.6831 -0.8739 -3.6402 -0.7004 -0.5226 7.9633 -1.2298 4.2969 -5.3654 -3.1452 0.9353 1.3509 2.0757 -0.0067 4.6094 3.0419 -1.2035 -2.9123 0.5857 1.2522 -3.8782 -1.9760
-4.8824 5.8037 0.1573 -4.3054 8.1842 0.4045 -4.6116 -3.3479 2.8727 -4.2595 -1.4048 4.3470 5.5499 -4.9995 -5.4971 5.5907 -2.5504 -5.1845 -2.0354 -4.7357 -3.3593 -0.7251 -4.3734 -5.3973 2.6569 -4.5232 2.1487 3.2480 -4.5677 -0.2292 0.3851 4.4190 3.5393 -0.3119 7.9133 0.3374 0.3789 -2.0369 4.8423 1.3940 7.5631 -2.6849 0.7913 5.4238 -3.2025 2.7762 -2.5395 -3.2164 -0.3263 1.4556 5.0978 -2.0174 3.0628 1.0902 0.4090 -1.5213 0.6641 0.3882 -5.9772 -1.4592 -2.6387 6.4762 0.9550 -2.3437 -2.7949 3.6494 3.4380 -3.7643 -5.1689 0.7271 6.1844 -0.9150 0.3671 -0.1308 3.4286 -0.0563 2.1325 2.8905 1.7306 -4.5526 -3.7200 -0.7406 4.9861 1.1632 -0.3444 -2.9760 2.3095 0.6056 -3.7306 -0.8976 -3.7749 6.8220 0.0255 -3.6718 -2.2203 3.2211 4.9006 -3.8347 -4.7940 -0.6791 -4.9482 -3.9984 2.4044 -3.8658 0.8099 -0.5959 6.7999 -0.4974 -0.4703 -1.2221 4.0527 -0.6507 3.4414 3.0291 -1.4895 5.8003 0.2305 -1.2026 -2.0437 3.0030 0.4152 -4.2784 -3.1864 0.9121 -3.8826 0.5059 0.9413 6.3216 -2.3876 2.6302 -3.5280 -3.9281 -0.0663 1.2173 3.9234 -1.2027 3.7872 1.6602 0.2999 -2.6509 1.1327 0.4620 -4.7930 -1.7675
-1.0047 5.3746 5.6405 -3.3445 4.6137 5.3932 -2.9692 -0.8977 2.7983 -4.4212 -0.8863 0.7932 6.2662 -7.0665 -0.5646 5.5528 -5.1256 -1.8862 -0.0558 -7.6055 -4.0636 -0.4103 -6.7948 -1.7580 -3.0596 -2.7710 -2.5240 -1.9919 -0.9833 -3.8715 3.4793 4.6148 2.9352 -3.7320 5.5546 2.4413 0.0885 1.9642 -0.7162 -4.0560 7.6115 -0.1636 -2.6205 6.1950 -1.2328 3.6941 -6.6537 -4.1910 3.2544 2.2838 0.4648 1.2549 6.0747 3.5759 -0.9164 -2.7694 -0.0366 1.9041 -3.3254 -3.6020 -1.6956 3.9754 3.6372 -2.2992 0.3841 0.7829 4.2460 -7.2979 -1.9555 -2.2521 6.7943 1.0791 1.3692 0.9398 1.0501 1.8680 2.9872 2.1890 2.2620 -6.0639 -2.4617 -0.1243 4.9644 2.0931 -0.7681 -0.5999 -0.8433 -0.0055 -3.7234 -2.3690 -1.9023 4.2888 5.1036 -3.0001 -0.8522 1.2927 5.0682 -6.3360 -1.1240 -0.0907 -6.3846 -3.1776 -1.8042 -2.3420 -3.2441 -2.4836 5.4648 1.7681 -0.0061 1.3033 0.5345 2.2128 4.3882 2.1389 -1.3815 5.1852 2.7758 -0.8635 0.0580 0.4378 1.1966 -5.5980 -3.3127 -0.5464 -2.3871 -2.4000 -2.9695 6.8055 -0.2343 3.3926 -6.6378 -3.0013 2.2633 2.1391 1.1749 1.0827 5.2136 2.7161 -0.7607 -1.9754 -0.9599 1.0796 -4.1016 -3.1227
-1.9417 4.4732 5.0913 -4.2333 5.3590 5.1652 0.5961 1.4313 -2.4559 -1.7297 1.3540 -1.6557 1.4056 -8.3282 -5.0111 3.6527 -8.1243 -4.0236 -1.2536 -2.4970 -2.3993 -1.7113 -4.4152 -3.8332 5.2964 -2.9280 0.2612 4.5935 -4.4513 -1.5250 2.0926 4.7250 0.1069 -2.6688 5.9850 -0.1690 -0.7616 -1.0020 1.9807 -5.0202 3.6639 -0.5585 -5.9700 4.3740 1.3912 1.2866 -7.7417 -1.0202 1.2000 2.5213 3.4481 0.4578 6.7841 1.0658 3.0808 -0.5569 -1.4195 0.3989 -3.9395 0.1456 -2.6260 6.3000 3.5510 -0.0283 -0.0893 -0.6069 1.8079 -6.7517 -3.1524 -3.5659 4.2387 1.1815 -0.4778 1.3514 2.1956 0.6419 3.2349 1.3034 -0.0235 -6.0107 -1.8008 -0.9121 5.2620 2.1311 1.9584 -0.9586 0.5721 1.9811 -3.3422 -1.4535 -3.0687 5.0392 4.2607 -0.2820 1.2583 -1.2415 2.1724 -8.0960 -3.7327 -1.2554 -4.0074 -2.4496 4.3899 -3.0727 -0.9405 -3.1541 5.6938 1.1332 0.2046 0.0331 1.9128 1.2672 4.5329 1.3596 -2.0990 6.0730 2.1516 0.9140 0.0373 0.5718 0.1071 -4.6121 -2.1602 2.9527 -2.8036 -0.5310 -4.9836 4.1178 0.7173 1.0171 -6.9113 -1.8829 0.5547 2.4174 2.4112 0.2337 5.6422 1.4645 2.6846 -1.3183 -0.5435 0.8186 -3.9450 -1.0069
-2.2128 8.1722 -0.3510 -0.2292 7.5321 0.9598 -2.3300 -0.7127 -0.3225 -4.2455 -1.3426 1.0894 2.5104 -5.4435 -6.3955 0.5486 -6.7790 -5.7417 4.6115 -2.1780 -2.4623 3.0791 -0.6895 -3.6743 3.1412 -3.9128 3.3790 4.6322 -3.6699 1.4479 -2.1707 3.9793 4.4529 -0.8488 2.5499 -1.1651 -1.9644 -2.8751 4.4281 0.7530 5.9543 -2.4375 1.0306 3.7926 -3.1069 -0.7362 -3.6569 -4.3341 -0.7610 1.0136 5.4031 -3.2304 3.3987 1.7099 1.5484 -0.7298 1.3923 0.4055 -3.3819 -1.0165 -1.9126 5.8229 0.3318 -1.9897 -2.1091 1.6913 1.3042 -4.9243 -4.3093 -1.1468 4.5796 -2.4059 -2.3409 -0.5298 4.4557 -2.1559 1.6831 3.6630 1.1744 -2.6585 -3.5267 -0.9737 3.7791 1.3037 0.2828 -2.3359 2.4878 2.4800 -2.8648 -0.1413 -1.2016 7.0815 -0.1016 -2.7828 -0.9727 1.0930 1.1554 -5.3973 -5.7345 3.1962 -1.6523 -2.5168 3.4124 -3.0997 2.1337 -1.4574 3.8300 -1.1241 -1.3683 -1.6298 4.1046 -1.6039 2.9992 3.4512 -1.0400 4.6033 0.1134 -0.9399 -1.5890 2.6494 2.2176 -2.8194 -2.5348 2.1704 -3.0694 1.2560 0.3241 4.6935 -2.6814 0.4639 -3.7000 -4.0782 -1.6345 0.7889 4.5730 -2.0578 3.4040 2.0715 1.3182 -1.8970 1.6903 1.5748 -3.0372 -1.1698
2.5328 8.2272 0.4653 0.5568 8.7093 -0.9179 -2.9690 -4.6381 2.2941 -1.8503 -3.5291 4.1795 5.7618 -4.7022 -4.2789 5.9982 -2.6945 -2.8691 -0.2290 -6.5097 -3.4476 0.7924 -7.4252 -1.4152 -2.4538 -0.4999 -3.7554 -1.7633 -2.5660 -4.8848 -4.1546 4.3850 3.0440 0.4472 4.6343 3.4228 -0.4335 -0.2489 2.4671 2.6961 2.5401 2.8604 3.9751 3.8683 1.5156 4.2811 -4.2672 -0.3632 -3.9942 1.7288 0.8278 -2.6723 6.6190 2.3009 -2.9988 -3.2147 -1.0008 0.9611 -3.0149 -0.7855 0.7355 6.5560 0.2361 -1.5163 -2.6837 1.8911 3.9479 -4.0640 -2.7369 1.5637 3.9825 1.4128 -1.7053 1.0462 0.9637 -2.4606 3.0830 1.9330 2.4205 -5.2358 -1.2998 -1.1364 5.3385 1.1517 -1.6854 -1.4670 -0.2035 -0.4983 -3.4236 -2.5382 1.0413 8.0285 0.3388 -2.5110 -3.3073 2.8399 5.4444 -4.0972 -2.9349 0.2626 -6.1655 -2.0607 -2.2389 -1.9848 -3.5739 1.0680 5.1424 2.2520 -1.7266 -0.1592 1.8845 -3.2163 4.3115 1.8589 0.0882 6.0294 1.4984 -2.0935 -1.4689 1.1840 1.2565 -5.0123 -2.1368 -1.2948 -2.2234 -2.4077 2.8840 3.4982 1.9210 3.5936 -4.5210 -1.3489 -2.8607 1.9602 1.2359 -2.3146 5.5349 1.8423 -2.1095 -2.3830 -1.1437 0.5781 -3.7161 -1.7182
-2.9676 6.1281 3.0085 -2.0394 3.8897 3.5689 -0.9486 -2.6647 5.9708 -2.3691 -4.2787 4.7712 0.2628 -3.1675 -6.7918 -1.3036 -4.6520 -5.5986 4.0164 -1.8847 -3.4389 1.8664 -1.3787 -2.3144 3.7000 -3.1249 3.0839 2.2041 -5.0842 3.3740 -2.2607 2.6824 -1.7620 -0.6923 8.0657 1.2819 -2.2259 0.1938 2.4373 -0.3690 9.1373 -1.9590 -2.4318 9.3741 -1.0127 2.2800 -6.2828 -3.8031 -2.2792 -0.4158 -1.6457 0.4706 3.3217 -0.0704 1.8340 -1.3462 1.2746 1.3900 -5.2546 -1.0516 -0.5282 5.5638 2.4905 -1.7381 -2.1795 3.6708 1.1397 -5.0785 -5.5187 -1.2585 7.2528 -0.9045 -1.6029 -1.0915 0.5318 -1.0181 1.0742 -0.4191 1.8053 -4.0440 -3.4478 -1.4314 4.5513 0.4441 0.1036 -2.6372 2.1280 2.7052 -3.7000 0.0254 -1.7319 5.3515 3.3805 -1.2698 -3.2559 4.6206 0.0640 -4.0181 -5.5624 3.0804 -2.2793 -2.3234 2.9490 -4.2286 2.3814 -1.3692 7.0216 0.5911 -1.1485 -0.5252 1.8584 -1.7218 2.3383 -0.3893 -0.7455 5.6949 0.9938 -0.6281 -1.5939 2.8175 2.7506 -3.7613 -2.3903 2.0195 -3.7594 1.2890 -1.4538 8.6930 -1.2789 1.8029 -5.2129 -4.1733 -1.6839 -0.1149 -0.6119 -0.7493 3.4261 0.0096 1.3441 -2.4345 1.5566 2.1777 -4.3111 -1.0927
1.5495 6.1310 -0.9630 1.2956 6.3943 1.4691 -4.5946 -1.0778 0.9423 -4.6803 -0.3410 3.2915 4.7812 -3.6270 -5.3793 3.8913 -5.8769 -4.9073 2.8744 0.4074 -1.9312 1.6177 0.5505 -4.0304 1.4634 -5.0766 2.3570 1.9459 -5.6131 0.0204 -0.8954 3.9057 4.5742 -1.8216 2.3769 -1.2982 -1.7175 -2.8183 5.0061 -0.7475 3.2008 -4.2926 0.3146 5.1628 -3.8170 0.6339 -4.2269 -4.7722 0.4608 0.7488 4.8861 -2.8749 3.6900 2.4138 1.2114 -1.5306 1.9698 -0.5164 -1.9522 -1.5971 -0.6228 5.6422 0.1086 -3.0459 -2.0609 2.5993 2.8395 -3.9113 -3.8732 -1.5269 4.4147 -2.4483 -1.6225 -0.4409 4.9613 -1.4285 1.6439 3.8614 1.1810 -2.1779 -3.8806 -0.9334 3.4472 1.1578 -0.7719 -2.7330 2.1099 1.4345 -2.6823 -0.5586 0.8793 5.5782 0.2697 -3.7742 -0.8071 2.1785 3.5310 -4.4269 -5.1115 1.6336 -0.0676 -2.6504 1.8409 -4.4813 1.0191 -1.0522 3.5743 -1.2817 -1.1844 -1.7198 4.2863 -0.8428 2.8970 3.4519 -1.2941 4.2833 0.0376 -1.5770 -1.7675 2.8197 1.6278 -1.5852 -2.6443 0.8446 -3.4455 0.5221 -0.5365 4.3236 -3.5652 1.4429 -3.4831 -4.2257 -0.7231 0.6959 4.5723 -1.6899 3.3902 2.3102 0.4779 -2.4405 1.5977 0.7017 -2.0873 -1.5656
-2.0622 4.0005 3.4421 0.1290 4.1891 4.5605 -4.7058 0.8699 2.0962 -5.1235 0.3896 -0.2714 5.6325 -3.8552 -4.5252 3.7336 -2.8524 -5.7415 3.9753 -5.4382 0.1078 2.9265 -3.2135 -0.1726 -2.2006 -4.3278 2.2384 -3.6959 -4.1254 0.2755 3.7208 3.2207 0.8445 -2.7191 6.5823 1.3653 0.2674 0.5335 -0.3322 -3.2246 6.8871 -1.9838 -4.6061 5.4822 -0.8311 1.6063 -6.3094 -4.0801 2.8823 0.3313 2.1318 2.1879 5.4764 0.6614 0.1649 -2.3960 1.3382 -0.0935 -4.6152 -2.5323 -0.3946 5.8322 2.7691 -2.8233 0.7160 0.4889 3.5541 -5.1418 -4.8043 -2.1996 5.3005 -0.6166 0.4902 0.3516 2.0831 1.7869 2.3640 2.0044 2.6519 -4.8762 -2.5845 0.1807 4.3510 0.8880 -1.5870 -1.3828 0.1919 -0.0950 -4.5823 -0.2355 -0.9635 4.9434 3.8509 -4.1719 0.1583 0.8766 4.1287 -3.7590 -4.6031 2.6781 -4.7049 -0.1383 -2.3084 -4.4823 0.7413 -2.0643 5.4128 0.8893 -0.4028 0.6866 0.9063 2.2155 3.0655 0.8188 -0.6090 5.4800 1.3104 -1.6730 -0.1515 0.9567 1.9503 -5.2365 -1.3673 -1.2598 -3.7418 -0.0597 -3.4870 5.8647 -1.1343 2.4968 -5.5114 -3.7967 1.8487 0.9891 2.0488 1.5598 4.4298 0.8075 -0.8007 -2.4528 0.5827 0.5031 -4.7517 -1.4658
-2.9792 7.7293 5.2062 -1.3698 5.8592 5.4909 1.5623 0.9487 -3.4512 3.8218 0.2656 -2.7283 -2.2586 -6.4837 -4.5518 -0.6682 -4.6912 -3.8939 2.5479 -9.4829 -1.1097 3.9368 -7.4328 -1.1295 3.6329 -3.2821 -2.4133 4.4902 -2.7485 -0.1496 -3.3401 3.6205 0.8188 -2.3869 9.6420 2.7578 1.2071 0.4260 2.0260 -4.0868 6.9594 -0.4096 -1.8474 7.1906 -0.7947 -0.6165 -8.3491 -2.6389 -2.2930 0.8752 3.0170 -0.4820 5.0778 1.2461 0.5513 -2.5271 -1.7647 1.2705 -6.0527 1.1748 -0.8932 7.5961 3.7446 2.0820 0.7025 -1.0361 0.2069 -6.9833 -4.4371 -2.9756 8.6986 0.7032 -0.9993 0.3752 1.0658 -1.3630 2.6197 1.8070 1.2465 -7.0000 -2.3066 -2.2371 6.0094 2.4414 1.4801 -1.4133 0.0387 1.4601 -4.8426 -0.7783 -1.5418 7.2981 5.0795 2.3481 0.1719 -2.4252 -0.8592 -5.9459 -4.7048 2.6727 -8.0679 -0.6014 3.5688 -3.6360 -0.9476 -2.7559 8.3959 2.1716 0.4676 0.6837 0.8459 -2.3326 3.6798 1.9450 -1.6973 7.3482 2.4792 1.0084 -0.0994 -0.3325 1.4229 -7.2625 -0.8970 2.1715 -3.6599 -0.3575 -2.8743 7.5337 -0.2274 0.1935 -7.5156 -3.0297 -1.6296 1.2977 2.0751 -1.5599 4.9732 1.8249 1.3048 -2.4980 -0.7957 1.3928 -6.0033 -0.0476
0.1848 9.0526 5.2583 -1.2168 7.0306 5.5093 -0.7958 0.2791 -4.1313 1.6380 0.1270 -4.5414 -2.5084 -7.8737 -2.4475 -1.3403 -5.7059 -2.7868 3.9435 -8.9447 -1.1760 4.5450 -6.7364 -2.1300 2.5081 -3.2962 -3.6783 4.1125 -2.0913 -2.2166 -3.3458 3.3492 2.0523 -2.2527 9.5582 3.2465 1.5658 1.0141 0.7669 -5.0087 6.5593 1.4541 -3.4063 6.9887 -0.1132 0.2214 -8.8493 -1.2569 -0.9530 0.9341 3.4359 -0.8970 5.1259 0.9025 -0.0525 -2.8240 -1.7538 2.7598 -5.4266 0.9549 -0.2303 7.7006 3.2251 0.8176 0.6831 -2.2846 -0.1799 -7.8475 -3.4024 -3.6914 8.4751 1.7583 -0.7344 0.3855 1.1178 -1.0347 2.6393 1.8683 1.6072 -7.1429 -2.0078 -1.8865 5.9536 2.8271 1.2842 -1.1987 -0.7889 1.7315 -4.6909 -0.9720 -0.0935 7.6691 4.7322 0.5368 -0.1064 -3.5404 -1.5003 -7.1212 -3.2776 3.8418 -7.4502 -1.0006 3.1815 -3.2727 -2.3279 -2.7266 8.2590 2.9064 0.3094 0.8636 0.1298 -1.9179 3.5992 2.4842 -1.5584 7.3406 2.5909 0.4018 -0.0843 -1.0475 2.4027 -7.0168 -0.8089 2.2364 -3.3514 -1.1450 -3.9834 7.2676 0.9275 0.5393 -8.0091 -2.0904 -0.9196 1.3306 2.2755 -1.4946 4.9522 1.9611 1.0189 -2.4615 -1.2768 2.3406 -5.6366 -0.1821
-0.2981 7.5570 -0.7463 1.7722 6.5850 0.1705 -4.5422 -1.0073 0.7379 -4.8222 -0.3547 3.1015 4.8795 -3.6741 -5.2455 3.8798 -5.9053 -4.8943 3.0026 0.3514 -1.7602 1.8393 0.5847 -3.9051 0.8206 -5.7164 1.6139 2.4882 -5.2402 -0.1060 -0.8935 3.7545 4.7071 -1.3753 2.4272 -1.2756 -1.9321 -2.9983 4.9228 0.8754 5.0830 -3.3531 -0.4558 3.5153 -4.3388 0.7037 -4.1417 -4.7840 0.3511 0.4807 4.9223 -2.8679 3.6304 2.5370 1.1321 -1.7154 2.0741 -0.4772 -1.9370 -1.6563 -0.4058 5.5433 0.6665 -3.1815 -2.1051 2.4952 2.8860 -3.9429 -3.8076 -1.1350 4.5427 -2.2641 -1.7794 -0.6253 4.9679 -1.5227 1.5175 4.0065 1.3241 -2.1294 -3.8550 -0.9398 3.2889 1.2904 -0.9063 -2.8328 2.0506 1.4061 -2.6811 -0.5104 0.4012 6.2731 -0.3748 -3.8358 -0.8157 2.0571 3.5944 -4.4340 -5.0441 1.7813 -0.0689 -2.5441 1.6523 -4.6167 0.9915 -0.7037 3.6735 -1.1009 -1.3610 -1.8882 4.2533 -0.8820 2.7403 3.5891 -1.1170 4.2716 0.2388 -1.7091 -1.8730 2.7748 1.7277 -1.5844 -2.5814 0.7479 -3.5051 0.4789 -0.2241 4.2962 -3.4276 1.5277 -3.4441 -4.2013 -0.8404 0.4969 4.6349 -1.6991 3.2713 2.4410 0.3778 -2.5660 1.6116 0.7362 -2.0817 -1.5586
1.7277 6.4681 -2.3586 0.8103 4.9333 -4.0460 -3.0669 -4.4661 4.1457 -2.9199 -3.1234 6.2010 5.1820 -1.9505 -4.4963 5.8361 -3.2566 -2.5095 -0.5834 -0.1812 -3.0839 -0.7054 -1.6708 -5.0375 2.0738 -4.0984 2.5493 3.1410 -2.8455 0.7255 -4.9184 3.1035 0.6033 -1.0369 5.4487 1.5548 -0.8167 0.0790 4.6016 1.7531 4.7533 3.3747 3.0401 4.8734 1.4930 2.6936 -5.0494 -3.8116 -2.4377 0.0301 0.4823 -3.3832 4.7037 -1.0558 -1.6306 -3.7996 1.1708 -0.5888 -4.1502 -1.8544 0.5858 4.4057 -1.6454 -1.5060 -2.5534 4.2725 3.4564 -2.9085 -3.0180 0.8114 3.9476 1.3916 -1.1933 0.7977 2.3807 -2.8137 2.1670 1.3122 1.2476 -3.2551 -3.8702 -1.4405 3.5386 -0.6234 -0.6088 -1.9444 2.1121 0.6077 -2.6114 -0.5858 0.6019 5.5136 -2.6695 -2.8556 -3.0764 4.6943 4.8225 -3.1243 -3.6196 -0.6012 -1.6233 -3.5318 1.8618 -3.0239 1.5079 0.0227 5.0406 0.7070 -1.6421 -0.1551 3.4705 -3.5503 2.6324 0.1646 -0.5227 4.6501 -0.6511 -1.6308 -1.6291 3.0796 0.5960 -2.3517 -2.9470 0.6675 -3.3750 0.6383 1.9980 4.5715 2.0550 2.4564 -3.8622 -3.6098 -2.2250 0.9197 1.3000 -2.8034 3.7523 -0.5344 -0.6461 -3.0818 1.3325 0.1338 -3.1627 -1.7614
-1.1399 6.4088 -2.3888 -2.0745 4.1096 -2.2173 -3.9158 -2.2662 4.7992 -5.2502 -3.2121 2.9545 4.8973 -0.4728 -3.3200 5.5414 -2.8076 -2.7705 0.9983 -6.6244 -4.6148 3.1319 -7.2962 -3.5451 0.4248 -5.8421 2.6148 -1.8229 -6.4562 1.7473 1.6283 3.9358 2.0137 -2.3874 8.4770 0.2566 -1.2897 -0.4874 0.3281 0.0122 10.3870 1.5683 1.4128 9.1063 0.2987 2.5538 -2.6396 -1.7549 1.8174 0.6841 1.0370 -1.6992 3.9101 2.2408 0.7418 -3.0221 1.2862 -0.4941 -4.8373 -2.5081 -2.7739 5.7888 -0.5125 -3.3161 -1.7819 2.4417 3.3618 -2.2976 -3.9922 -0.4137 8.0869 1.5075 0.0908 -0.3606 2.3164 0.1764 2.0041 2.0259 2.2223 -4.2721 -3.3866 -0.6788 5.2280 0.6312 -1.5834 -3.0258 1.2367 0.6899 -5.0867 -0.5236 -2.3065 5.5703 -1.9343 -3.8612 -2.8178 3.3955 4.8000 -1.9176 -3.7364 1.7646 -6.7034 -3.3150 -0.4127 -6.0754 1.3799 -1.2607 7.6136 0.3462 -1.2859 -0.6070 1.7387 0.4573 3.2490 1.3449 -1.7506 6.1903 0.5344 -1.8317 -1.9553 2.1869 1.8573 -5.3946 -2.5554 -0.4197 -4.9366 0.3861 0.4490 9.2167 1.0414 2.6997 -3.0757 -2.8912 0.7912 0.8154 1.6972 -0.7619 4.1382 1.4810 -0.3272 -3.5665 1.0239 0.5375 -5.0814 -1.8943
-3.4204 8.3405 -0.7146 -5.2228 6.7718 -0.0550 1.8805 -1.1952 4.5004 0.9303 -3.4222 4.9209 3.9278 -8.9541 -4.1458 1.4812 -8.7849 -4.5478 0.3739 -2.9175 -3.2612 2.7629 -2.3054 -3.0528 2.0909 -5.4086 2.2604 -0.3632 -5.7440 2.0505 -1.8894 4.3005 -0.9512 -1.8988 9.6573 1.9557 -2.4457 -1.2899 1.2924 0.8781 9.8770 3.7115 1.3772 9.9312 1.4852 4.4808 -5.7875 -4.5983 -3.0966 1.1140 -0.4357 -2.6488 4.5404 2.6511 2.2317 -2.6572 0.6335 0.3860 -6.0772 -2.3141 -3.7642 7.6816 1.7379 -0.1909 -1.9093 3.3300 3.0243 -7.2646 -5.7988 -0.0528 8.1934 2.3849 -0.9777 0.4089 0.4371 -1.8141 2.6172 0.7877 2.1802 -5.5957 -4.3300 -1.9888 6.0970 1.0771 -0.0583 -2.5543 0.9727 1.7807 -4.9359 -0.8613 -4.3751 7.9385 0.3790 1.1477 -2.3559 3.8744 2.8533 -8.6187 -5.1486 1.7884 -3.3147 -3.6056 0.9416 -5.6185 1.3070 -1.3165 8.4169 1.5749 -1.2884 -0.5218 1.5924 -2.4821 3.8266 0.3572 -2.3023 7.2875 1.8312 -0.1074 -1.4358 1.8906 2.1907 -4.7132 -3.1908 0.8538 -4.6027 0.1904 0.8118 9.4178 2.4379 3.3343 -6.1558 -4.8314 -2.0945 1.3924 0.2161 -2.3638 4.8332 1.4903 1.1205 -3.1765 0.6191 1.3339 -5.3266 -2.1066
-4.2390 4.2810 0.5987 -2.1693 2.9402 0.3142 -4.2194 -0.8703 4.0764 -5.4121 -1.5916 2.0488 4.1947 -2.0185 -6.0009 5.5272 -1.5720 -3.9779 1.6424 -6.2783 -4.2283 3.5655 -6.4074 -2.6707 -0.7512 -5.4416 2.6258 -2.8752 -5.3364 1.3506 2.4174 3.6256 4.1115 -2.3512 6.8301 -0.3887 -0.4228 0.2022 0.2721 0.1433 7.4444 -3.0768 -0.3858 5.2251 -3.0155 2.6430 -2.0336 -1.5538 2.3955 1.0262 1.7031 0.5373 5.5726 3.5624 0.5849 -2.8298 1.5659 -0.5880 -4.5104 -2.5343 -2.2237 4.9462 1.8916 -3.1735 -0.5949 1.8521 3.0494 -1.5942 -3.8665 -0.0839 6.4783 -0.9649 0.3734 0.0698 2.5434 0.8458 2.3898 2.7731 2.0288 -3.6221 -3.1365 0.1741 4.8287 1.3974 -1.5392 -2.1371 0.9272 0.2929 -4.7820 -0.4035 -2.9717 3.7983 1.2555 -4.0583 -1.4741 2.7034 4.2687 -2.2122 -4.5070 2.1001 -6.0827 -2.8040 -1.3730 -5.4156 1.2505 -1.3027 5.8727 -0.3029 -0.8305 0.1292 1.6287 1.6640 3.5760 2.8016 -1.0473 5.5621 1.1597 -1.7361 -1.0651 1.8770 1.8004 -4.7163 -2.2269 -0.8560 -4.3305 0.3354 -0.1430 6.2787 -2.4476 2.5798 -2.4310 -2.7130 1.3246 1.1977 2.2762 0.7328 4.7589 2.6632 -0.4981 -3.0386 1.0289 0.3653 -4.6475 -1.7747
2.1074 7.8477 -1.4304 2.8184 6.9076 0.7331 -5.5690 1.0175 1.5285 -5.9573 0.5928 -0.8685 6.4188 -4.1675 -2.3700 6.3708 -5.1358 -0.1030 2.1650 -4.8057 -4.7486 1.9450 -6.8569 -3.3782 -3.5265 -4.9622 -0.4515 -4.0580 -3.6218 -2.4636 1.8205 2.5735 4.4923 -1.4582 4.1952 -0.1008 -0.5295 0.6477 -0.5541 -2.4974 2.8753 2.8714 -3.9801 4.1696 1.7167 2.5884 -3.9179 0.2726 1.8836 0.1588 1.7944 1.3058 5.0859 3.5164 -1.7444 -2.8742 0.9762 0.4399 -2.6057 -2.9875 0.7911 5.9789 -0.5046 -3.6583 0.8303 -0.0241 4.6878 -3.4539 -0.7718 -1.7517 4.9824 2.1880 -0.4931 -0.0645 1.7466 0.5611 1.9130 2.5565 2.7468 -3.9928 -2.0452 1.0694 4.3812 1.3257 -2.4927 -1.2372 -0.4999 -0.5539 -3.9382 -1.3621 2.1688 6.5956 -0.5911 -5.0418 0.3208 0.2994 5.5264 -4.6194 -1.2404 1.4472 -5.4493 -3.5874 -2.9578 -4.2902 -1.6769 -1.1842 5.2489 0.8067 -1.2897 0.5928 0.6411 1.6486 2.7503 2.9998 0.3122 5.5228 0.8584 -2.5994 -0.1451 0.4361 1.4958 -4.6632 -2.2945 -1.8437 -3.3099 -1.4009 -2.8758 3.9932 2.2070 3.2370 -3.8339 -0.7657 0.7884 0.6658 2.0158 1.3068 4.1895 2.6755 -2.0097 -2.4820 -0.1544 0.4212 -3.6098 -2.2830
-3.2823 6.9524 -0.7077 -3.8946 4.7130 0.1856 -2.5154 -3.9711 6.3099 -2.2127 -5.6328 4.5245 0.9659 0.7235 -4.1092 1.4720 -1.0887 -5.7332 2.7765 -5.3660 -3.9702 4.3087 -3.4328 -3.8428 3.0042 -4.1946 3.1646 1.4631 -6.1102 2.8656 0.3390 1.4933 -0.9695 -0.3058 7.9633 0.2274 -2.7671 -0.5981 3.3298 3.1222 7.6161 -1.3889 1.2398 8.6596 -2.1383 0.2588 -1.5336 -1.6982 -2.9509 -0.0464 -0.5959 -0.0176 3.1435 1.6999 1.2141 -1.8934 1.7619 0.8951 -5.2223 -1.4420 -1.9834 5.9553 1.2412 -2.3551 -3.2406 3.9499 -0.3236 -1.4506 -4.0201 1.1078 6.4917 -1.0324 -2.0670 -1.3684 1.1748 -1.2908 0.8889 0.7178 1.2801 -2.9998 -3.1790 -0.7857 4.3169 -0.1542 -0.4844 -3.3407 2.4058 2.0776 -3.8679 0.0250 -3.2981 6.0579 0.5029 -1.8605 -4.2357 4.9762 0.4114 -0.4470 -4.8771 3.3668 -4.3142 -3.0587 2.2483 -5.0314 2.1619 -0.2905 6.7376 -0.4979 -1.6831 -1.1810 2.6272 -0.8874 1.9304 -0.2041 -0.7314 5.6286 0.4464 -1.2158 -2.4694 3.3058 2.3335 -3.4859 -2.3153 1.3614 -4.2486 1.2188 1.7839 7.7163 -1.5859 0.4527 -1.9538 -2.8343 -2.1668 -0.1096 0.3496 -0.5214 3.1699 0.5806 0.7261 -3.0170 1.8259 1.6821 -4.3062 -1.2239
-2.9242 6.7309 -0.6087 -3.5814 5.3107 1.3295 -4.0382 -3.1385 5.9064 -2.4383 -4.8189 5.0726 0.1340 -1.1449 -6.6901 0.7315 -3.5124 -6.4124 4.8227 -1.3650 -1.5317 2.8322 0.0146 -1.0166 2.4785 -4.6734 3.1124 0.5381 -6.0840 2.4820 -0.0855 1.4707 -1.6599 0.1276 7.3679 -0.8390 -3.2842 -0.1429 3.2972 2.2800 4.4930 -2.4702 2.8248 3.6038 -0.4427 3.3400 -3.4633 -4.2440 -3.7524 0.8122 -0.1953 0.2335 2.6308 1.2325 0.9812 -2.0707 2.8866 0.2182 -2.8466 -1.2861 -1.2462 6.2284 1.2343 -3.0675 -2.9201 3.6440 2.1000 -1.7327 -5.3392 1.8704 5.8091 -0.5665 -2.8973 -0.9995 1.1018 -1.4621 0.6686 0.1639 2.0990 -1.9681 -2.9737 -1.0306 4.1136 -0.0328 -1.0868 -2.9140 2.2562 1.7523 -3.2501 0.3993 -2.6942 6.4303 0.8492 -2.8062 -3.3563 5.0640 0.7048 -2.1635 -5.7330 3.4170 -1.3764 -0.9816 1.5361 -5.0638 1.9997 0.3778 5.9728 -0.7606 -2.3259 -0.8059 2.4898 -1.1118 1.8276 -0.6151 -0.3801 5.3250 0.3825 -1.8953 -2.1070 3.1418 2.5703 -2.4196 -1.6866 0.8492 -3.9067 1.3100 2.3605 4.5096 -1.1199 2.5821 -2.5039 -4.1451 -2.7719 0.2598 0.2943 -0.5441 2.8685 0.3143 0.2916 -2.8598 2.2492 1.3707 -2.8398 -0.8626

>  <OB_ATOM_TYPES> (1lybB1)
C.3 C.3 C.3 C.3 C.3 C.3 C.3 C.3 C.3 C.3 C.3 O.3 O.3 O.co2 O.co2 O.2 O.2 O.2 O.2 O.2 C.3 C.3 C.3 C.3 C.3 N.am N.am N.am N.am N.am C.3 C.3 C.3 C.3 C.3 C.3 C.3 C.3 C.3 C.3 C.3 C.3 C.2 C.2 C.2 C.2 C.2 C.2

>  <ENSEMBLE_RMSD> (1lybB1)
0.000 1.785 2.157 2.238 2.459 2.524 2.529 2.715 2.764 2.867 2.878 2.881 2.977 2.980 3.087 3.097 3.138 3.139 3.164 3.221 3.305 3.376 3.388 3.505 3.521 3.557 3.570 3.577 3.598 3.632 3.668 3.673 3.724 3.763 3.843 3.845 3.888 3.946 3.953 3.965 3.982 3.984 4.015 4.029 4.057 4.130 4.139 4.682 4.832

$$$$
