
 OpenBabel03071213D

 12 12  0  0  0  0  0  0  0  0999 V2000
   29.8980    3.9330   19.5000 C   0  0  0  0  0
   29.8250    6.7750   18.8100 O   0  0  0  0  0
   28.7360    3.6290   17.4160 O   0  0  0  0  0
   27.9890    6.1510   18.0670 O   0  0  0  0  0
   33.6780    4.2110   16.2940 C   0  0  0  0  0
   33.4120    5.2420   17.1690 C   0  0  0  0  0
   32.6690    3.3120   15.9460 C   0  0  0  0  0
   32.1300    5.3790   17.7030 C   0  0  0  0  0
   31.3910    3.4530   16.4820 C   0  0  0  0  0
   29.1520    5.9060   18.3250 C   0  0  0  0  0
   31.1040    4.4880   17.3700 C   0  0  0  0  0
   29.7070    4.4910   18.0670 C   0  0  0  0  0
  1 12  1  0  0  0
  2 10  1  0  0  0
  3 12  1  0  0  0
  4 10  2  0  0  0
  5  6  2  0  0  0
  5  7  1  0  0  0
  6  8  1  0  0  0
  7  9  2  0  0  0
  8 11  2  0  0  0
  9 11  1  0  0  0
 10 12  1  0  0  0
 11 12  1  0  0  0
M  END
>  <MOLID> (1mdrA1)
1mdrA1

>  <SMILES_CANONICAL> (1mdrA1)
OC(=O)[C@](c1ccccc1)(O)C	

>  <FINGERPRINT> (1mdrA1)
0000000000000000000000000000000000000000000000000000000000000000000000000000000000000001000000000000000000000001000000100000000000000000000000000000000001000000000000000000000001000000000000000000000000000000000000000000000000000000000000000000000000000000000000000000000000000001000000000000000000001000000010000100000000001000000000000000000000000000010000000000000011010000000000000000000100000000100000000000000000000000000000000000000000000000010000000000010000000000000000000000000000001000000000000000100000001000000000000000000000000000000000100000000000000000000000000000000000000000000000000000000000000000000000000000000000000000000000000000000000000000000000000000100000000000000010100010000000000101000000000000000000000000000000000100000000000000000100000000000000000000000000000000000010000000000000000000000000000000000000000000000000000000000000000000000000000000000000000000000000000000000000000000000000000000000000000000001000000000000000100100000000000000001000000000000000000000000000000000010000000000

>  <MACCS166> (1mdrA1)
000000000000000000000000000000000000000000000000010001000000000001000001000100000000000000000000001000000001000100000000001000000010000100111000010010010100101100111000

>  <OB_MW> (1mdrA1)
166.063

>  <OB_logP> (1mdrA1)
0.9787

>  <OB_PSA> (1mdrA1)
57.53

>  <OB_MR> (1mdrA1)
43.8386

>  <OB_ATOMIC_CHARGES> (1mdrA1)
0.049371001 -0.2425675423 -0.2095530439 -0.2425675423 -1.78028e-05 -0.0002328374 -0.0002328374 -0.0013880165 -0.0013880165 0.395513781 0.0154525653 0.2376102918

>  <MCT_HBD> (1mdrA1)
2

>  <MCT_HBA> (1mdrA1)
3

>  <ENSEMBLE_TOTAL> (1mdrA1)
4

>  <ENSEMBLE_COORDS> (1mdrA1)
-0.9096 -0.8145 1.9042 -0.9826 2.0275 1.2143 -2.0716 -1.1185 -0.1797 -2.8186 1.4035 0.4712 2.8704 -0.5365 -1.3017 2.6044 0.4945 -0.4268 1.8614 -1.4355 -1.6498 1.3224 0.6315 0.1072 0.5834 -1.2945 -1.1138 -1.6556 1.1585 0.7292 0.2964 -0.2595 -0.2257 -1.1006 -0.2565 0.4713
-1.4138 -1.3605 1.3900 -0.6422 1.3331 1.9842 -2.1530 -0.5313 -0.6756 -2.3297 1.8416 0.5503 2.8273 -0.3437 -1.2871 1.8273 0.1837 -2.0146 2.5523 -0.8910 0.0273 0.4756 0.1944 -1.4878 1.3003 -0.8725 0.5160 -1.4630 1.0671 0.9345 0.1982 -0.3231 -0.2717 -1.1794 -0.2978 0.3345
-1.9690 -1.3719 0.1730 -2.0669 1.2756 -0.7830 -0.8858 -0.5194 2.0686 -1.8048 1.9004 1.3853 2.8237 -0.3562 -1.2950 2.7002 0.2582 -0.1058 1.6687 -0.9822 -1.9086 1.4139 0.2850 0.5646 0.4784 -0.9557 -1.2850 -1.6643 1.0697 0.4978 0.3307 -0.3077 0.0172 -1.0248 -0.2958 0.6711
-1.3675 -1.3441 1.3638 -2.6830 1.2415 1.3851 -2.1524 -0.4048 -0.6567 -0.5423 1.9700 1.1836 2.8385 -0.4404 -1.3142 1.7939 -0.2523 -2.1390 2.6156 -0.5813 0.1118 0.4484 -0.1861 -1.6012 1.3670 -0.5313 0.6072 -1.3865 1.1044 0.9978 0.2198 -0.3284 -0.2783 -1.1515 -0.2472 0.3401

>  <OB_ATOM_TYPES> (1mdrA1)
C.3 O.co2 O.3 O.co2 C.ar C.ar C.ar C.ar C.ar C.2 C.ar C.3

>  <ENSEMBLE_RMSD> (1mdrA1)
0.000 1.184 1.300 1.536

$$$$
