
 OpenBabel03071213D

  9  8  0  0  0  0  0  0  0  0999 V2000
   67.3900  -10.7730   -2.0720 O   0  0  0  0  0
   70.3810   -9.2600   -5.9290 O   0  0  0  0  0
   69.0410  -11.0550   -7.0590 O   0  0  0  0  0
   66.2360   -9.3430   -3.2770 O   0  0  0  0  0
   68.5550   -8.6350   -7.5570 O   0  0  0  0  0
   68.3330  -10.0840   -4.0880 C   0  0  0  0  0
   67.9840   -9.5280   -5.3250 O   0  0  0  0  0
   67.2140  -10.0370   -3.0970 C   0  0  0  0  0
   69.0360   -9.5950   -6.5020 P   0  0  0  0  0
  1  8  1  0  0  0
  2  9  1  0  0  0
  3  9  1  0  0  0
  4  8  2  0  0  0
  5  9  2  0  0  0
  6  7  1  0  0  0
  6  8  1  0  0  0
  7  9  1  0  0  0
M  END
>  <MOLID> (1ml1B1)
1ml1B1

>  <SMILES_CANONICAL> (1ml1B1)
OC(=O)COP(=O)(O)O	

>  <FINGERPRINT> (1ml1B1)
0000000000000000000000000000000000000000000000000000000000000000000000000000000000000000000000000000000000000000000000000000000000000000000000000000000000000100000000000000000000000000000000000000000000000000010000000000000000000000000000000000000000000000000000000000000000000000000000000000000000000000000000000000000000000000000000000000000000000000010000000000000001000000000000000000000010000000100000000000000010000000000000100000000000100000000000000000000000000000000000000000000000001000000010000000100000000000000010000000000000100000000000000000000000000000000000000000000000000000000000000000000000000000000000000100000000000010000000000000000000000000000000000000010000000000000010100000000000000100000000000000000000000000000000000000000000000000000000000000000000000000000000000000000000000000000000000000000000000000000000100000000000000000000000000000000000000001000000000000000000000000000000000000000000000000000000000000000000000010000000000000000000000000000000000000000000000000000000001000000000000000

>  <MACCS166> (1ml1B1)
000000000000000000000000000010000000000000100001000000000000000000000001000000000000000001000000000001010100000100000000001101000111000101110000010100001110101000010000

>  <OB_MW> (1ml1B1)
155.982

>  <OB_logP> (1ml1B1)
-0.8197

>  <OB_PSA> (1ml1B1)
113.87

>  <OB_MR> (1ml1B1)
25.5719

>  <OB_ATOMIC_CHARGES> (1ml1B1)
-0.2428285866 -0.1145254957 -0.1145254957 -0.2428285866 -0.222372616 0.2668500869 -0.2579114271 0.395025305 0.5331168159

>  <MCT_HBD> (1ml1B1)
3

>  <MCT_HBA> (1ml1B1)
6

>  <ENSEMBLE_TOTAL> (1ml1B1)
2

>  <ENSEMBLE_COORDS> (1ml1B1)
-0.8511 -0.9608 2.9176 2.1399 0.5522 -0.9394 0.7999 -1.2428 -2.0694 -2.0051 0.4692 1.7126 0.3139 1.1772 -2.5674 0.0919 -0.2718 0.9016 -0.2571 0.2842 -0.3354 -1.0271 -0.2248 1.8926 0.7949 0.2172 -1.5124
-0.9742 -1.3291 2.4384 1.7270 1.1625 -0.5532 1.0765 -1.2763 -1.2435 -0.2036 0.7785 2.0370 0.5599 0.6781 -2.6886 -1.2737 -0.5093 0.2750 -0.7965 0.4773 -0.6160 -0.7494 -0.2451 1.6562 0.6341 0.2634 -1.3053

>  <OB_ATOM_TYPES> (1ml1B1)
O.co2 O.3 O.3 O.co2 O.2 C.3 O.3 C.2 P.3

>  <ENSEMBLE_RMSD> (1ml1B1)
0.000 0.973

$$$$
