
 OpenBabel03071213D

 13 12  0  0  0  0  0  0  0  0999 V2000
   55.7990   81.7880   19.1610 O   0  0  0  0  0
   58.0080   85.4690   16.0390 O   0  0  0  0  0
   54.4050   84.7750   19.5260 O   0  0  0  0  0
   56.9240   84.6440   18.4530 O   0  0  0  0  0
   56.9410   80.7710   17.7060 O   0  0  0  0  0
   56.7110   85.2450   14.2470 O   0  0  0  0  0
   53.4450   83.8720   17.8530 O   0  0  0  0  0
   56.0380   82.8410   17.0630 C   0  0  0  0  0
   55.6900   85.2940   16.5070 C   0  0  0  0  0
   56.3700   81.7840   18.0800 C   0  0  0  0  0
   56.8710   85.3530   15.5880 C   0  0  0  0  0
   54.4720   84.3080   18.3810 C   0  0  0  0  0
   55.8080   84.2800   17.6430 C   0  0  0  0  0
  1 10  1  0  0  0
  2 11  1  0  0  0
  3 12  1  0  0  0
  4 13  1  0  0  0
  5 10  2  0  0  0
  6 11  2  0  0  0
  7 12  2  0  0  0
  8 10  1  0  0  0
  8 13  1  0  0  0
  9 11  1  0  0  0
  9 13  1  0  0  0
 12 13  1  0  0  0
M  END
>  <MOLID> (1mldC1)
1mldC1

>  <SMILES_CANONICAL> (1mldC1)
OC(=O)C(CC(=O)O)(CC(=O)O)O	

>  <FINGERPRINT> (1mldC1)
0000000000000101000000000000000000000001000000000000000000000000000000000000000000000000000000000000000000000000000000000000000000000000001010000000000000000000000000000000000000000000000000000000000000000000000000000000000000000000000000000000000000000000000000000000000000000000000000000000000000000010000000000000000000000000000000000000000000000000010000000000000001010000000000000001010000000000100000000010000000000010000000000000000000000000000000000000000000000000000000000000000000001000000000000000100000000000000000000000000000000000000000000000000000000000000000000000000101000000000000000000000000000000000000000000000000000001000000000000000000000000000000000000000000000000000010100000000000000101000000000000000000000000000000000000000000000000000100000000000000000000000000000000000000000000000000000000000000000000000000000000000000000000000000000000000000000000000000000000000000000000000000000000000000000010000000000000000000000000000000000000000000000000000000000000000000000000000000000000000000000000

>  <MACCS166> (1mldC1)
000000000000000000000000000000000000000000000000000011000000000001000001000000000000000011100000000000010000000100000000001000000011000100110000010000010110101000010000

>  <OB_MW> (1mldC1)
192.027

>  <OB_logP> (1mldC1)
-1.2485

>  <OB_PSA> (1mldC1)
132.13

>  <OB_MR> (1mldC1)
37.4712

>  <OB_ATOMIC_CHARGES> (1mldC1)
-0.2455452889 -0.2455452889 -0.2429129448 -0.2129148608 -0.2455452889 -0.2455452889 -0.2429129448 0.1560365471 0.1560365471 0.3679567876 0.3679567876 0.3927475973 0.2401876393

>  <MCT_HBD> (1mldC1)
4

>  <MCT_HBA> (1mldC1)
7

>  <ENSEMBLE_TOTAL> (1mldC1)
47

>  <ENSEMBLE_COORDS> (1mldC1)
-0.9316 -2.8181 0.8633 1.6287 2.5337 -1.5443 -1.0417 0.9956 2.2566 1.0805 0.5902 0.8702 1.3094 -2.4284 1.0487 1.1161 0.6890 -2.7866 -2.4689 0.1220 0.7213 -0.0493 -1.0813 -0.4327 -0.2925 1.3469 -0.9351 0.2154 -2.1567 0.5780 0.8821 1.4486 -1.8598 -1.3355 0.4437 1.0540 -0.1127 0.3148 0.1663
-0.1797 -2.8185 1.1881 2.1570 1.3156 -1.4507 -1.6312 0.3214 2.2717 0.7436 0.6427 1.2708 1.7946 -1.9939 0.3906 0.5677 0.6463 -2.9438 -2.6153 1.1169 0.3867 -0.3048 -0.9736 -0.2411 -0.0873 1.4808 -0.7770 0.5765 -1.9532 0.4711 0.8839 1.0846 -1.8480 -1.6253 0.6891 0.9655 -0.2798 0.4417 0.3160
0.7160 -2.4320 1.4584 2.0651 1.5720 -1.1425 -1.6357 1.3674 2.1918 0.6070 0.5629 1.2977 1.4880 -2.1685 -0.6698 1.0022 0.2294 -2.6471 -2.8599 0.6182 0.4314 -0.5775 -1.1129 0.0103 -0.2380 1.2435 -0.8389 0.6627 -1.9362 0.1984 0.9856 0.9259 -1.6439 -1.7739 0.7743 0.9783 -0.4416 0.3559 0.3759
0.6800 -2.6851 2.0868 2.0624 1.5110 -1.4947 -1.3417 1.8920 1.2573 0.7764 0.4537 1.1382 1.2608 -2.7411 -0.1193 -0.0035 2.3296 -2.0121 -2.5580 0.6168 -0.1731 -0.6250 -1.4138 0.6201 0.2380 0.0764 -1.1723 0.5479 -2.3342 0.7850 0.7142 1.4337 -1.5946 -1.5068 0.8452 0.4121 -0.2447 0.0156 0.2668
-0.6432 -2.6470 1.8400 0.2145 2.8731 -1.3728 -0.6391 1.2478 1.8922 1.1959 0.1557 0.4552 1.3491 -2.8288 0.7410 1.8393 1.5500 -2.2760 -2.3633 0.6434 0.5473 -0.4371 -1.4963 -0.1877 -0.2086 0.5699 -1.4612 0.2165 -2.3795 0.8297 0.7468 1.6866 -1.7467 -1.1655 0.6426 0.8001 -0.1053 -0.0174 -0.0611
-0.8236 -2.9323 1.1051 1.6181 0.8687 -2.6010 -1.0922 1.0663 1.9829 1.0586 0.6771 0.6476 1.2489 -2.1582 1.6639 1.0146 2.8591 -1.6611 -2.4521 -0.0381 0.5394 0.1105 -1.3031 -0.2945 -0.3430 0.8956 -1.3143 0.2693 -2.1497 0.9346 0.8233 1.6677 -1.8506 -1.3396 0.3729 0.8447 -0.0927 0.1739 0.0032
-0.5288 -2.3835 2.0769 1.8331 1.6058 -2.4415 -1.1785 0.8516 1.8365 1.0747 0.3075 0.6360 1.4718 -2.7620 1.0471 0.3056 2.8004 -1.2382 -2.3843 0.7564 -0.0851 -0.2757 -1.5576 -0.1031 0.0478 0.4080 -1.5261 0.3462 -2.2873 1.0486 0.7137 1.7422 -1.6905 -1.3374 0.5668 0.5204 -0.0882 -0.0482 -0.0811
-0.5269 -2.7077 1.1327 2.0580 1.0170 -1.9756 -2.2114 0.9326 -0.3048 0.6674 0.3223 1.7011 1.6897 -2.4751 0.6384 -0.0812 1.4931 -2.6127 -1.9829 0.5337 1.9194 0.0736 -0.9403 -0.2844 0.5420 1.5687 -0.2792 0.5296 -2.1049 0.5387 0.7668 1.3547 -1.7449 -1.4895 0.6278 0.8038 -0.0353 0.3782 0.4675
-0.9976 -2.8011 0.8651 1.6651 2.5156 -1.5722 -2.4174 0.3026 0.6158 1.1448 0.5474 0.8360 1.2568 -2.4724 0.9963 1.0272 0.7148 -2.8207 -1.0436 0.7630 2.3671 -0.1019 -1.0710 -0.4343 -0.2714 1.3887 -0.8959 0.1589 -2.1663 0.5573 0.8642 1.4652 -1.8709 -1.1988 0.4907 1.1847 -0.0863 0.3226 0.1717
1.2426 -2.2737 1.4955 1.0047 2.3411 -1.7437 -1.6939 0.8107 2.2668 0.6643 0.6809 1.0497 0.9753 -2.5432 -0.7547 1.9159 0.2533 -1.8862 -2.5505 1.4566 0.2654 -0.6452 -1.2856 0.5243 -0.3687 0.5424 -1.1525 0.6050 -2.0851 0.3154 0.9810 0.9926 -1.6204 -1.6724 0.9009 0.9115 -0.4582 0.2093 0.3287
0.4756 -2.5625 1.3664 2.1574 1.4812 -1.1603 -2.6875 0.9970 0.2430 0.6485 0.5169 1.3355 1.5063 -2.1358 -0.6257 0.8930 0.3417 -2.6773 -1.7914 0.8574 2.3252 -0.5819 -1.0496 -0.0778 -0.1469 1.3575 -0.7521 0.5935 -1.9486 0.1639 0.9967 0.9780 -1.6400 -1.6658 0.7803 1.1114 -0.3974 0.3864 0.3877
1.6978 -2.4701 0.6810 1.9063 0.9525 -2.1779 -1.4067 1.1941 1.7727 0.8482 0.5352 0.7547 -0.2165 -2.5154 1.9227 0.8660 2.8757 -1.5220 -2.6692 0.0663 0.2606 -0.1794 -1.4082 -0.2275 -0.2866 0.7608 -1.3746 0.3982 -2.1746 0.9242 0.8692 1.6640 -1.6762 -1.5719 0.4252 0.6686 -0.2554 0.0946 -0.0063
1.4064 -2.6240 1.0443 0.4936 2.9665 -1.1693 -0.9409 1.2958 1.7430 1.1537 0.3631 0.5529 -0.8109 -2.7220 1.5681 1.8125 1.5617 -2.3936 -2.4019 0.0013 0.5840 -0.0701 -1.4693 -0.3642 -0.2319 0.7497 -1.4032 0.0999 -2.3246 0.8574 0.8164 1.7713 -1.7163 -1.2633 0.4057 0.7718 -0.0635 0.0248 -0.0749
0.8117 -2.4466 1.3874 1.6056 2.2748 -1.2764 -2.4042 1.6559 0.4431 0.6748 0.5100 1.1291 1.0868 -2.4760 -0.8774 1.6268 0.1900 -2.2003 -1.8436 0.4757 2.2945 -0.7196 -1.2121 0.1103 -0.3283 0.9822 -1.0203 0.4974 -2.0872 0.1191 1.0672 1.0645 -1.5581 -1.6158 0.7987 1.1348 -0.4589 0.2700 0.3140
1.5216 -2.2472 1.0201 1.8505 2.3821 -1.3292 -2.5052 -0.0133 0.1949 0.8870 0.6914 1.0905 -0.6848 -2.8263 0.9754 1.0620 0.8460 -2.8192 -1.5795 0.6746 2.1482 0.1207 -1.0155 -0.4062 -0.2421 1.4298 -0.8686 0.2383 -2.1151 0.6082 0.9459 1.4837 -1.7829 -1.4596 0.3604 0.9725 -0.1546 0.3496 0.1965
-0.8609 -2.6583 0.1495 0.6708 2.1339 -2.2729 -1.4843 1.8539 1.8725 0.8577 1.3745 1.0293 1.2910 -2.4403 -0.5754 1.9851 0.3337 -1.7847 -2.3946 -0.0866 1.1320 0.4211 -0.9397 1.1026 -0.2692 0.4854 -0.9128 0.3587 -2.0708 0.1223 0.9340 0.9456 -1.6782 -1.4327 0.6660 1.2216 -0.0769 0.4026 0.5943
0.6286 -2.9275 -0.4008 1.9483 0.9529 -2.0195 -1.6075 1.1625 1.9957 0.8282 0.6287 1.0216 1.4572 -2.3540 1.6462 0.1921 2.3981 -1.8148 -2.3428 1.3076 -0.1517 -0.5661 -1.3198 0.8197 -0.0446 0.0770 -1.1676 0.6276 -2.2269 0.7575 0.6777 1.2860 -1.6815 -1.5115 0.9232 0.6619 -0.2871 0.0923 0.3334
0.7126 -2.8939 -0.5436 2.0393 1.2477 -1.5884 -1.1932 2.1335 1.0129 0.8068 0.4678 1.1335 1.2970 -2.5649 1.6372 0.1081 2.4297 -1.8736 -2.6704 0.4744 0.5432 -0.6069 -1.4075 0.7050 0.0315 0.1289 -1.1388 0.5794 -2.3249 0.6778 0.6948 1.4063 -1.5558 -1.5156 0.8675 0.6459 -0.2835 0.0354 0.3447
1.6854 -2.1914 -0.1801 1.8432 0.1973 -2.1419 -2.0465 1.6011 1.5354 0.4172 1.6471 0.9641 -0.4206 -2.7913 0.4597 1.0493 2.3088 -1.8128 -2.4363 -0.4893 0.7491 0.5245 -0.6888 1.1887 -0.1971 0.4017 -1.0056 0.5041 -1.9938 0.4516 0.9529 1.0997 -1.6667 -1.6659 0.4422 0.9447 -0.2102 0.4567 0.5137
1.3478 -2.2086 1.9131 2.0779 1.1120 -1.8202 -2.5748 0.3756 -0.2730 0.7006 0.6842 1.1334 0.9055 -2.9332 -0.2044 0.1838 2.3843 -1.7557 -1.7223 1.8307 1.2509 -0.5525 -1.3276 0.8627 0.1155 0.0500 -1.1242 0.6388 -2.2325 0.7594 0.7601 1.3208 -1.5878 -1.5793 0.8687 0.5085 -0.3010 0.0753 0.3373
-0.7630 -2.8298 0.2953 1.5496 2.0774 -1.5771 -2.1329 0.0349 0.0501 1.0452 1.1551 1.2475 1.5054 -2.8058 0.5365 -0.4114 1.3762 -2.5083 -1.5017 1.9456 1.1064 0.1675 -1.0144 1.4491 0.6738 0.0352 -0.8201 0.4096 -2.2945 0.7099 0.5102 1.2222 -1.7210 -1.2198 0.8530 0.6339 0.1675 0.2449 0.5977
1.6098 -2.0305 -0.6626 0.8415 0.5386 -2.7099 -1.7489 1.8623 1.5748 0.5811 0.5093 1.2945 0.6647 -2.6165 1.3297 2.0741 1.6285 -1.1293 -2.6935 -0.1597 1.1486 -0.4892 -1.1217 -0.1752 -0.2988 1.2908 -0.8092 0.6378 -1.9967 0.2774 1.0117 1.1780 -1.5280 -1.7465 0.6088 1.0489 -0.4438 0.3087 0.3404
0.8605 -2.5578 -0.8827 1.6868 0.2328 -2.1071 -1.6241 2.1609 0.9332 0.6279 0.6309 1.1284 1.4893 -2.2760 1.2919 1.1824 2.3477 -1.4159 -2.6537 0.2050 1.4560 -0.5945 -1.3469 0.4986 -0.4021 0.5523 -1.0975 0.7052 -2.0827 0.3755 0.8943 1.1662 -1.5295 -1.7004 0.8050 0.9785 -0.4716 0.1627 0.3704
1.6313 -2.1216 1.0970 0.9844 2.3060 -1.6337 -2.7749 0.4027 0.5114 0.7139 0.7621 1.1262 0.5547 -2.6881 -0.8340 1.8690 0.2208 -1.9186 -1.6021 1.8642 1.7991 -0.5232 -1.2544 0.7809 -0.3683 0.4885 -1.0474 0.5936 -2.0857 0.2280 0.9564 0.9533 -1.5706 -1.6254 0.9285 1.0111 -0.4094 0.2238 0.4505
-0.7073 -2.8176 0.7033 1.2082 0.7673 -2.6028 -1.8881 -0.1154 -0.4771 0.7319 0.4634 1.7863 1.2872 -2.4989 1.7646 -0.4298 2.2783 -2.1174 -1.7884 1.3356 1.2659 0.6404 -1.0604 -0.0664 0.9687 1.3977 -0.3556 0.4648 -2.1753 0.9209 0.4762 1.5382 -1.7651 -1.2296 0.5691 0.4923 0.2657 0.3180 0.4511
1.8442 -1.7252 1.3299 1.8038 0.0585 -2.0143 -2.8352 0.0815 0.2981 0.5130 0.9963 1.0951 0.8521 -2.6680 -0.4971 1.0969 2.1949 -1.6434 -1.9840 1.8196 1.4871 -0.4034 -1.1905 0.9305 -0.3352 0.3287 -1.0973 0.8115 -1.9380 0.4813 0.9162 0.9888 -1.5923 -1.8120 0.8181 0.8056 -0.4682 0.2354 0.4169
1.6372 -2.0831 1.1556 0.7960 0.9217 -2.9463 -2.5068 -0.1147 0.0708 0.7778 0.8271 1.1333 -0.5265 -2.8011 1.0718 2.0061 2.0434 -1.3711 -1.7272 0.6341 2.0707 0.2063 -0.9873 -0.3409 -0.2817 1.3995 -0.9223 0.3606 -2.0436 0.7101 0.9753 1.4986 -1.7344 -1.5284 0.3278 0.9034 -0.1886 0.3776 0.1993
-1.1470 -2.8041 1.3516 1.8347 2.0445 -2.0600 -2.1570 0.1955 0.0134 1.3978 0.2694 0.5044 1.0272 -2.3761 1.9015 -0.2550 2.7834 -1.5117 -0.8924 1.1120 1.6656 0.1226 -1.6150 -0.2097 0.2247 0.4162 -1.5753 0.0831 -2.2819 1.1319 0.5432 1.8756 -1.6877 -0.9777 0.4790 0.6221 0.1959 -0.0984 -0.1462
0.6116 -2.8276 1.5278 0.5089 2.3600 -1.7989 -2.2307 0.7586 -0.3732 0.2218 0.1535 2.0341 1.4752 -2.3928 -0.5380 0.6826 0.1718 -2.4190 -1.5700 2.0416 1.3779 -0.4972 -1.2242 0.2272 0.9875 0.8176 -0.1067 0.6507 -2.1827 0.3383 0.7018 1.0408 -1.5614 -1.3802 1.0917 0.6296 -0.1620 0.1917 0.6623
1.6786 -2.5487 0.7281 1.8532 1.9980 -1.5800 -2.0783 -0.3880 -0.2277 0.6571 1.4094 1.2177 -0.5621 -2.9386 0.5432 -0.2393 1.6107 -2.4027 -1.9752 1.6244 0.8240 0.2414 -0.8739 1.5093 0.7323 0.1030 -0.7820 0.3725 -2.2170 0.8552 0.6907 1.3117 -1.6695 -1.4247 0.6083 0.4216 0.0538 0.3006 0.5628
1.1599 -2.4445 1.7323 -0.4229 2.1957 -2.1321 -1.8363 -0.0834 -0.5486 0.7076 0.5061 1.8437 -0.6743 -2.8269 0.4315 1.4125 0.8927 -2.5035 -1.9002 1.0113 1.4388 0.7762 -0.9529 -0.0377 0.8213 1.5519 -0.2536 0.3079 -2.1599 0.7188 0.6566 1.4765 -1.7420 -1.2597 0.4676 0.5493 0.2514 0.3658 0.5031
1.0213 -2.5967 1.8374 -0.0716 2.3214 -1.9965 -2.5384 0.6378 0.2416 0.9467 0.4206 1.0050 0.8382 -2.8946 -0.4171 1.9735 1.3477 -1.7132 -1.1694 1.9924 1.4488 -0.6318 -1.3579 0.7363 -0.0394 0.1220 -1.1861 0.4824 -2.3541 0.6187 0.7548 1.3093 -1.6406 -1.3309 1.0034 0.7468 -0.2353 0.0488 0.3189
0.2933 -2.9625 -0.3972 1.8540 0.4622 -2.0366 -2.6584 0.5668 0.2979 0.8322 0.7779 1.0024 1.7821 -2.1327 1.1194 0.5333 2.3167 -1.8658 -1.4845 1.8706 1.7413 -0.4575 -1.2279 0.9843 -0.2639 0.1728 -1.0880 0.6789 -2.1276 0.5959 0.7247 1.1237 -1.6873 -1.5150 0.9798 0.9017 -0.3191 0.1801 0.4321
1.9041 -1.8078 -0.3903 2.0982 0.9447 -1.7791 -2.3535 0.7011 -0.5056 0.0985 0.1213 1.9743 0.7284 -2.8556 1.2577 -0.0879 1.2582 -2.3457 -2.2401 1.2827 1.6836 -0.3119 -1.1141 -0.0509 0.5978 1.2860 -0.0200 0.8057 -2.0182 0.3715 0.7885 1.1543 -1.5020 -1.7179 0.7974 0.6891 -0.3100 0.2502 0.6173
0.9196 -2.3015 -0.5646 1.8193 0.2339 -2.1520 -2.2427 -0.6157 0.5305 0.3485 1.7865 0.8200 -0.0666 -2.7119 1.4475 0.9324 2.3351 -2.1192 -1.9571 1.1679 1.9009 0.8190 -0.5174 0.9636 -0.2638 0.4920 -1.1089 0.4841 -1.9491 0.6672 0.8752 1.1493 -1.8307 -1.5219 0.4164 1.0385 -0.1460 0.5146 0.4071
1.5864 -2.2769 -0.3442 1.8371 1.8440 -1.3249 -2.4845 -0.0544 0.3330 0.3751 1.7304 1.2142 -0.6678 -2.4099 -0.0233 1.2666 -0.0241 -2.4999 -1.8668 0.8210 2.3341 0.6189 -0.6090 0.9700 -0.2859 0.9098 -0.9123 0.4002 -1.8437 0.1481 1.0127 0.8232 -1.6560 -1.5847 0.4912 1.1893 -0.2072 0.5984 0.5720
1.5723 -2.4318 1.3245 1.9463 1.5436 -2.2632 -2.4363 -0.1453 -0.0433 1.0163 0.4806 0.6778 -0.6385 -2.5746 1.8728 0.3900 2.9270 -1.3269 -1.4487 1.1708 1.5247 0.0393 -1.5232 -0.1949 -0.0292 0.5525 -1.5042 0.2514 -2.2143 1.1176 0.7628 1.8135 -1.6625 -1.3604 0.4120 0.5691 -0.0654 -0.0108 -0.0915
1.1561 -2.2806 1.8689 1.1565 -0.0019 -2.2570 -2.3573 0.3175 -0.4820 -0.0223 0.4402 2.0455 1.5722 -2.4101 -0.3686 0.1385 2.0311 -2.0836 -1.8561 2.0536 0.8925 -0.3947 -1.2603 0.4265 0.8878 0.8776 -0.0980 0.8884 -2.0234 0.5668 0.6552 1.0510 -1.5689 -1.5619 0.9706 0.4024 -0.2624 0.2347 0.6555
1.3203 -3.0012 1.0794 -0.3890 2.3995 -2.3233 -0.9388 1.2546 1.5481 1.2546 0.1569 0.7270 -0.6560 -2.3887 2.0430 1.5599 2.4901 -1.1403 -2.2409 0.4125 -0.1117 -0.0843 -1.6178 -0.1776 0.4341 0.3749 -1.4941 0.1326 -2.3506 1.1113 0.6204 1.8591 -1.5994 -1.1461 0.5254 0.4243 0.1332 -0.1147 -0.0867
0.7401 -2.6750 1.4254 -0.3436 1.3650 -2.2250 -2.4700 0.6132 -0.0324 0.3177 0.2138 1.9825 1.5911 -2.1910 -0.6333 1.7289 0.4199 -2.2181 -1.6941 1.9666 1.6140 -0.4305 -1.1093 0.1300 0.7448 1.1607 -0.1465 0.7567 -2.0177 0.2413 0.7796 0.9093 -1.6239 -1.5136 1.0471 0.8258 -0.2073 0.2975 0.6603
1.6219 -2.0798 -0.5370 0.6627 0.6063 -2.7612 -2.7161 0.7807 0.2967 0.6911 0.5285 1.2709 0.5047 -2.6015 1.3856 2.1200 1.5521 -1.2808 -1.7425 0.6764 2.3459 -0.4561 -1.0536 -0.1982 -0.2339 1.3928 -0.7480 0.5862 -1.9892 0.3319 0.9924 1.1995 -1.5889 -1.6523 0.6283 1.1259 -0.3781 0.3597 0.3572
-0.7890 -2.8173 0.6066 -0.6010 1.1886 -2.5318 -2.1015 0.0151 0.1943 1.1436 1.2217 1.0866 1.4843 -2.7940 0.4034 1.3580 2.1107 -1.8118 -1.4322 1.9289 1.2234 0.3384 -0.9487 1.4595 0.5833 0.0111 -0.8925 0.4395 -2.2668 0.7538 0.5147 1.2287 -1.7651 -1.1645 0.8505 0.7115 0.2264 0.2716 0.5622
-1.2671 -2.6407 1.4876 -0.6247 2.6687 -1.7135 -1.9793 0.4583 0.4435 1.5730 -0.0209 0.2031 1.0118 -2.6740 1.5874 1.6203 2.2736 -1.8101 -0.2811 1.1885 1.7688 -0.1177 -1.6295 -0.2805 0.0669 0.4329 -1.5969 -0.0256 -2.3509 1.0303 0.4713 1.8729 -1.7046 -0.6705 0.5721 0.7867 0.2227 -0.1510 -0.2020
-0.1041 -3.1032 -0.4186 -0.3749 2.1782 -2.0199 -2.3474 0.8342 0.3811 1.1603 0.4487 0.9761 1.5122 -2.6289 1.1210 1.7778 1.4303 -1.9065 -0.9080 1.9972 1.7008 -0.4874 -1.2763 0.9946 -0.0318 0.0573 -1.0833 0.4397 -2.3826 0.5911 0.5848 1.2816 -1.6900 -1.1247 1.0821 0.9186 -0.0964 0.0814 0.4350
1.6035 -2.2742 -0.5208 1.1056 0.1814 -2.3396 -2.4149 0.3177 -0.2590 0.1001 0.2896 2.0314 1.1080 -2.5705 1.6855 -0.0164 2.1349 -1.9879 -1.7372 2.0507 1.0378 -0.3552 -1.2646 0.2718 0.8975 0.9056 -0.1182 0.8525 -2.0929 0.5908 0.5847 1.1598 -1.5629 -1.5167 0.9600 0.5268 -0.2114 0.2024 0.6442
1.6603 -2.0564 -0.7165 -0.4194 1.4724 -2.1595 -2.4612 0.5704 0.0022 0.3801 0.0894 1.9445 0.7521 -2.8371 1.2241 1.7176 0.6815 -2.2127 -1.7323 1.7447 1.8011 -0.3603 -1.0923 -0.0187 0.6985 1.2390 -0.1010 0.7307 -2.0783 0.2669 0.7410 1.0720 -1.5899 -1.5201 0.9322 0.9098 -0.1871 0.2626 0.6498
1.7609 -2.5413 0.9136 -0.3680 1.2369 -2.5527 -2.1525 -0.2981 0.0011 0.7864 1.3574 1.1880 -0.4215 -2.9182 0.3633 1.5197 2.1500 -1.6541 -1.8192 1.8026 0.8016 0.2164 -0.8913 1.5166 0.6606 0.0523 -0.8115 0.4475 -2.2154 0.8554 0.6724 1.2708 -1.6864 -1.3791 0.7035 0.4931 0.0763 0.2908 0.5720

>  <OB_ATOM_TYPES> (1mldC1)
O.co2 O.co2 O.co2 O.3 O.co2 O.co2 O.co2 C.3 C.3 C.2 C.2 C.2 C.3

>  <ENSEMBLE_RMSD> (1mldC1)
0.649 0.666 0.747 0.945 0.977 0.978 0.989 1.063 1.068 1.069 1.091 1.141 1.144 1.145 1.163 1.176 1.217 1.230 1.276 1.326 1.345 1.352 1.355 1.392 1.397 1.407 1.419 1.420 1.437 1.439 1.440 1.442 1.455 1.455 1.465 1.466 1.472 1.478 1.493 1.496 1.536 1.552 1.578 1.599 1.636 1.637 1.638

$$$$
