
 OpenBabel03071213D

 32 33  0  0  0  0  0  0  0  0999 V2000
   27.0410   56.1470   50.5020 C   0  0  0  0  0
   25.5990   57.5570   49.1720 C   0  0  0  0  0
   31.7840   59.2340   46.2180 C   0  0  0  0  0
   24.5090   59.5670   54.8300 O   0  0  0  0  0
   28.6800   60.8710   50.4400 O   0  0  0  0  0
   31.2280   57.8440   48.6060 O   0  0  0  0  0
   26.9850   58.6160   54.7440 O   0  0  0  0  0
   28.9930   60.5070   53.7690 C   0  0  0  0  0
   26.7720   58.5460   51.1770 C   0  0  0  0  0
   32.5920   59.8500   50.6920 C   0  0  0  0  0
   30.2070   59.2210   50.7990 N   0  0  0  0  0
   28.8190   61.9170   54.8320 S   0  0  0  0  0
   27.2620   60.8370   57.3160 S   0  0  0  0  0
   28.2140   60.0110   58.6560 C   0  0  0  0  0
   29.5700   59.9800   58.2760 C   0  0  0  0  0
   32.5270   60.3570   55.0210 C   0  0  0  0  0
   31.9120   59.2580   54.4580 C   0  0  0  0  0
   33.1340   61.3240   54.1970 C   0  0  0  0  0
   31.9040   59.1150   53.0530 C   0  0  0  0  0
   33.1230   61.1780   52.8010 C   0  0  0  0  0
   29.8510   60.5540   57.0380 C   0  0  0  0  0
   31.6230   59.8190   47.5520 N   0  0  0  0  0
   25.5770   60.2040   54.1780 N   0  0  0  0  0
   26.8520   57.5350   50.0110 C   0  0  0  0  0
   31.2280   59.8340   49.9650 C   0  0  0  0  0
   27.7080   60.0980   53.0410 C   0  0  0  0  0
   28.0460   59.0400   51.9280 C   0  0  0  0  0
   29.0080   59.7850   50.9680 C   0  0  0  0  0
   32.5130   60.0700   52.2080 C   0  0  0  0  0
   31.3620   59.0780   48.6370 C   0  0  0  0  0
   26.7150   59.5580   54.0510 C   0  0  0  0  0
   28.7630   61.0830   56.3600 C   0  0  0  0  0
  1 24  1  0  0  0
  2 24  1  0  0  0
  3 22  2  0  0  0
  4 23  2  0  0  0
  5 28  2  0  0  0
  6 30  2  0  0  0
  7 31  2  0  0  0
  8 12  1  0  0  0
  8 26  1  0  0  0
  9 24  1  0  0  0
  9 27  1  0  0  0
 10 25  1  0  0  0
 10 29  1  0  0  0
 11 25  1  0  0  0
 11 28  1  0  0  0
 12 32  1  0  0  0
 13 14  1  0  0  0
 13 32  1  0  0  0
 14 15  2  0  0  0
 15 21  1  0  0  0
 16 17  1  0  0  0
 16 18  2  0  0  0
 17 19  2  0  0  0
 18 20  1  0  0  0
 19 29  1  0  0  0
 20 29  2  0  0  0
 21 32  2  0  0  0
 22 30  1  0  0  0
 23 31  1  0  0  0
 25 30  1  0  0  0
 26 27  1  0  0  0
 26 31  1  0  0  0
 27 28  1  0  0  0
M  END
>  <MOLID> (1mmbA1)
1mmbA1

>  <SMILES_CANONICAL> (1mmbA1)
C=NC(=O)[C@@H](NC(=O)[C@@H]([C@@H](C(=O)N=O)CSc1cccs1)CC(C)C)Cc1ccccc1	

>  <FINGERPRINT> (1mmbA1)
0000000000000011000000000000000000000001000000000011001000000000000000000001000000000001010000000000000000111001000001100100000000000000000000001000000000000000000000100000000000000000110000000000000000000010000000000000000000100000000000000000000000000100100001000010000000001000100000001000000000001000010011001100000000001000011100000000001000000000011000000000011110110000100000000100011100000001100000000000101000000000010001100000001000000000100001100000000000000000000000000000000000000000000000000000000000000100000000000000100000000000000000100000001000100000000000000000000000000000011000000000100000000000010000000000001000001001000000000000000000000001000100000111100000100100000001101001000000000000100000000000001100000001100000110111000000000000000110010000000000000000001010101000100010000100000000000000000000000000010000000000100000010010000000000001000000000000000000000000010000001100011000000000000000000010000000000000011000000000001010111011000000000000010000000000000000000001110000010010011001100000

>  <MACCS166> (1mmbA1)
000000000000000000001000000000000101000000000000010000000010001100000011010101101010000101110111001001010001011000101011000110001110000111011100010010101111011110111000

>  <OB_MW> (1mmbA1)
473.144

>  <OB_logP> (1mmbA1)
4.7573

>  <OB_PSA> (1mmbA1)
158.57

>  <OB_MR> (1mmbA1)
130.036

>  <OB_ATOMIC_CHARGES> (1mmbA1)
1.26858e-05 1.26858e-05 0.1065557471 -0.153129349 -0.2733310232 -0.2711151239 -0.2697429659 0.0723829056 0.0096460966 0.0574263957 -0.1974099715 -0.1067060884 -0.0801806508 0.0359469284 0.0080109409 -2.0017e-05 -0.0003216891 -0.0003216891 -0.0041981876 -0.0041981876 0.0132086534 -0.1750314238 0.0385000176 0.0004913145 0.1773680524 0.101412956 0.0878259882 0.2417958497 -0.0199562759 0.2658221967 0.2846236056 0.0546196229

>  <MCT_HBD> (1mmbA1)
1

>  <MCT_HBA> (1mmbA1)
7

>  <ENSEMBLE_TOTAL> (1mmbA1)
50

>  <ENSEMBLE_COORDS> (1mmbA1)
-4.0487 -0.8433 -3.3949 -3.8647 -2.9813 -2.1796 2.4475 -0.1527 -5.6428 -4.7095 -1.7821 2.0608 -0.3667 1.6677 -2.0505 1.2821 -1.7526 -3.8293 -3.9802 0.5732 0.6830 -1.0144 0.6686 1.1510 -2.0768 -1.3063 -1.9715 2.9629 -0.8495 -1.3483 0.5936 -0.3891 -1.5707 -0.0856 -0.2012 2.4341 -0.2189 0.0936 5.4528 -1.0345 1.4942 6.1081 -1.5386 2.3043 5.1627 4.8405 1.6697 1.5591 5.2521 1.7079 0.1672 3.8673 0.8286 1.9511 4.6503 0.9141 -0.7369 3.2265 -0.0364 0.9774 -1.2735 1.8114 3.8269 2.7274 -0.0232 -4.3887 -3.6659 -1.4577 1.5136 -3.5637 -1.5043 -2.1296 1.8918 -0.1355 -2.1501 -1.7747 -0.3582 0.3375 -1.7572 -0.0678 -1.1567 -0.4480 0.5111 -1.6447 3.5772 0.0279 -0.3192 1.8978 -0.7270 -3.5454 -3.1973 -0.3559 0.8350 -0.5983 0.6520 3.8384
-2.7090 -2.3941 -3.7985 -4.1714 -0.5277 -3.1227 2.7823 0.3944 -5.0075 -3.7822 -3.4093 2.1191 -0.7416 1.4962 -1.6747 1.0814 -1.2913 -3.8314 -4.3599 -0.8029 1.1735 -1.8624 0.7707 1.5357 -2.5134 -1.4647 -1.5297 2.5662 -1.1618 -1.0742 0.2299 -0.5774 -1.3037 -0.5068 0.6062 2.7206 -1.5139 3.3256 3.7053 -1.7676 3.4996 5.4261 -1.5503 2.3643 6.1111 6.0354 0.9245 0.3140 5.9924 0.3508 -1.0187 4.9742 0.8101 1.1324 4.8920 -0.3006 -1.4349 3.7837 0.1100 0.6832 -1.1517 1.2722 5.2446 2.4080 0.6191 -3.7920 -3.0667 -2.4364 1.9254 -2.7978 -1.1335 -2.9757 1.5660 -0.2297 -1.7230 -1.9904 -0.5232 0.7589 -2.0907 -0.2444 -0.7333 -0.8024 0.3359 -1.2755 3.7394 -0.4113 -0.5559 1.6504 -0.3834 -3.2287 -3.2177 -1.2322 1.2736 -1.1053 1.6441 3.9564
-2.3258 -1.7125 -4.3024 -4.2532 -0.5515 -3.3003 1.3991 -1.5904 -4.5812 -5.2936 -2.8467 1.3674 -0.7280 1.6592 -1.2249 2.4321 0.5737 -3.4414 -4.7858 -0.2583 0.4780 -2.0780 0.3497 1.6021 -2.3767 -1.3156 -1.8693 2.5734 -0.9000 -0.5526 0.2241 -0.4359 -0.9489 -0.9943 -0.4174 2.8311 0.2775 2.3518 3.0578 0.2845 3.0937 4.6415 -0.3165 2.3430 5.5802 5.9527 1.3710 0.7726 5.9652 0.6891 -0.5087 4.8577 1.3170 1.5521 4.8909 -0.0141 -0.9090 3.6974 0.5559 1.1228 -0.8292 1.1001 5.0385 1.2262 -1.4129 -3.3141 -4.2197 -2.2900 1.1816 -2.7605 -0.7570 -3.2189 1.5689 -0.0656 -1.3176 -2.4130 -0.7037 0.5645 -2.1765 -0.2082 -0.8527 -0.8277 0.4505 -1.0274 3.7086 -0.0734 -0.0664 1.7802 -0.2569 -2.8082 -3.8727 -1.0352 0.7291 -0.5871 0.9905 3.7247
-3.3481 -0.9714 -4.2582 -4.8108 0.0206 -2.5424 2.9591 -2.3465 -4.3440 -3.6508 -2.9254 1.0361 -0.4285 1.7445 -1.5518 2.1342 -2.6011 -1.8127 -4.1171 0.3930 1.2207 -1.1359 0.2414 1.4593 -2.6022 -0.9007 -1.9156 2.3312 0.0048 -0.4641 0.2369 -0.4786 -1.5935 -0.4744 -0.9102 2.6909 0.1921 -0.1519 5.5630 -0.8800 0.9606 6.3829 -1.9073 1.3673 5.6184 5.5723 2.7917 -0.6244 4.2001 3.2441 -0.7647 5.8388 1.4816 -0.4790 3.1913 2.3548 -0.7430 4.7507 0.5209 -0.4533 -1.8732 0.7685 4.2999 2.7665 -1.2887 -3.6282 -3.9996 -1.7891 1.3377 -3.3795 -0.1678 -2.9819 1.6475 -0.2489 -1.7923 -1.9958 -0.5372 0.4830 -2.0110 0.0685 -0.9110 -0.6583 0.5491 -1.3831 3.4794 0.9381 -0.5920 2.1835 -1.5240 -2.4037 -3.4062 -0.5817 1.0156 -0.8048 -0.0263 4.1315
-2.0649 0.2266 -4.1677 -4.4119 -0.2835 -3.6345 3.3667 -2.6948 -3.8143 -5.4623 -2.1000 1.3930 -0.2891 1.6847 -1.1949 1.4808 -2.8740 -1.9543 -4.3843 0.4517 1.0135 -1.4861 0.1605 1.6441 -2.6592 -0.6737 -1.9428 2.4090 -0.2648 -0.4423 0.1640 -0.5896 -1.3077 -0.5893 -1.0591 2.6340 0.3022 1.3835 4.2506 0.0244 1.3390 5.9764 -0.5958 0.2191 6.3844 5.0724 3.0521 -0.9236 5.4960 1.7003 -1.2406 3.8276 3.2793 -0.4679 4.6421 0.6732 -1.0843 2.9072 2.1700 -0.2920 -0.8846 -0.6772 5.2816 2.8706 -1.6077 -3.3240 -4.2989 -1.7514 1.2429 -3.1065 0.2228 -3.0744 1.5552 -0.4826 -1.6750 -2.2367 -0.5536 0.5368 -2.0758 0.1440 -0.8064 -0.6438 0.5112 -1.1196 3.2914 0.9199 -0.6079 1.9488 -1.7968 -2.3181 -3.6917 -0.5547 0.9288 -0.4776 -0.1745 4.1062
-2.3293 0.0486 -3.9838 -4.2077 -1.4437 -3.4736 3.3222 -2.6267 -3.7790 -5.0742 -1.7285 2.3477 -0.4191 1.7348 -1.4361 1.9096 -2.6638 -1.5231 -4.1934 0.6741 1.1189 -1.2350 0.4498 1.5817 -2.5281 -0.9879 -1.7396 2.4467 0.2273 -0.5175 0.2614 -0.4812 -1.3106 -0.1508 -0.6241 2.5500 -0.7932 1.3400 4.8115 -1.3903 0.6579 6.3069 -1.5365 -0.6768 6.2584 5.4229 3.0807 -1.6826 4.0137 3.4274 -1.7128 5.8073 1.8560 -1.2811 3.0897 2.5218 -1.3446 4.8098 0.8754 -0.8910 -1.1588 -1.2208 4.9687 2.9990 -1.5073 -3.2220 -4.0772 -1.4565 1.6950 -3.2877 -0.3925 -2.9024 1.6366 -0.2762 -1.6963 -2.0762 -0.4032 0.6540 -2.0254 0.0809 -0.7885 -0.6507 0.5485 -1.2152 3.5021 1.1885 -0.9358 2.1712 -1.6261 -2.1283 -3.4970 -0.3326 1.1535 -0.7616 -0.2638 4.1175
-2.1157 -1.1601 -3.8635 -3.8138 -2.7282 -3.0338 2.4265 2.0897 -4.3725 -3.5325 -3.7339 2.1879 -0.9575 1.5755 -1.3124 0.9801 -0.0836 -3.8896 -4.3729 -1.3006 1.0871 -2.1700 0.6397 1.6076 -2.2328 -1.7014 -1.4517 2.5583 -1.0230 -1.3719 0.2202 -0.4227 -1.2642 -0.9444 0.6879 2.9355 -1.4386 3.7043 2.6603 -0.0261 4.7264 2.5321 1.1289 4.0416 2.5784 4.3094 -1.0102 2.5304 4.8116 -0.1347 1.4868 3.2784 -1.8367 2.2800 4.2460 -0.1479 0.2668 2.6679 -1.8534 0.9631 0.9121 2.6144 2.7096 2.4012 1.6135 -3.1724 -2.9168 -2.6895 2.0188 -3.0370 -1.4762 -2.7100 1.5401 0.0852 -1.5527 -2.0478 -0.6703 0.8545 -2.1051 -0.4207 -0.6459 -0.8951 0.3679 -1.0972 3.1229 -1.0304 0.0012 1.5873 0.5159 -3.0049 -3.1921 -1.5444 1.3007 -0.3926 2.3056 2.7421
-1.9449 -0.7342 -3.9098 -3.9002 -2.1166 -3.3521 1.9949 1.4056 -4.1166 -4.7238 -3.4826 1.6001 -0.7401 1.5919 -0.9479 1.3874 -1.0470 -3.2400 -4.8750 -0.9985 0.4635 -2.6312 0.5831 1.6935 -2.3485 -1.4237 -1.5788 2.4336 -1.3443 -0.5024 0.1602 -0.5307 -0.6732 -1.7217 0.3362 3.2370 0.4330 2.1817 4.3388 0.2748 3.8957 4.0313 -0.8380 4.2118 3.3483 6.4092 -0.0033 0.3517 6.0589 -0.5072 -0.9639 5.4898 0.0168 1.3330 4.8067 -0.9311 -1.2107 4.1347 -0.4321 1.0652 -1.6338 3.0430 3.0341 2.1167 1.1321 -2.8608 -3.8369 -2.6386 1.5400 -3.0056 -1.0017 -2.8696 1.5358 -0.2207 -0.9838 -2.5079 -0.6528 0.8231 -2.2316 -0.2537 -0.6207 -0.8681 0.3851 -0.7594 3.7989 -0.8628 -0.1640 1.6454 -0.1071 -2.4910 -3.8126 -1.4042 0.9185 -1.0602 1.9096 3.4669
-1.6173 0.1488 -4.1454 -4.0535 -0.1696 -4.0115 3.0746 -2.8448 -3.2988 -6.1454 -1.6385 0.9499 -0.4202 1.7444 -0.9080 1.4294 -2.8626 -1.2121 -4.7388 0.7998 0.7129 -1.9901 0.1320 1.6870 -2.6499 -0.6047 -2.0308 2.2539 -0.1054 -0.0078 0.0238 -0.5322 -0.8714 -1.2961 -1.2218 2.6653 1.2154 -0.9369 4.3600 1.3576 0.4858 5.3673 0.3266 1.3365 5.2326 5.3141 2.7295 -0.9616 5.5945 1.3053 -0.9338 4.0797 3.1806 -0.6761 4.6199 0.4316 -0.6255 3.0263 2.2385 -0.3428 -0.6607 0.8486 4.2912 2.7149 -1.7186 -2.7795 -4.9496 -1.3963 0.8775 -2.8277 0.2693 -3.2510 1.4204 -0.4551 -1.2234 -2.6834 -0.4553 0.4739 -2.2672 0.2249 -0.8212 -0.7970 0.5753 -0.8762 3.2807 0.9172 -0.3370 1.8318 -1.8216 -1.7276 -4.1661 -0.2822 0.6797 -0.3009 -0.3227 3.7439
-2.9154 -1.5167 -3.7744 -4.4147 0.0869 -2.6513 3.5854 -3.0404 -2.6262 -2.5004 -2.4178 2.2112 -0.2653 1.9007 -1.4632 1.7869 -2.5503 -0.7243 -4.4836 0.0149 0.9845 -1.9509 1.4397 1.6166 -2.4216 -0.7895 -1.4833 2.6025 0.4646 -0.5959 0.3283 -0.2845 -0.9555 -0.5782 1.3096 2.7862 -2.7823 0.8131 4.8682 -2.5406 -0.5323 5.9601 -1.4203 -1.2279 5.7033 5.6202 2.7366 -2.5955 4.2234 3.1209 -2.6853 5.9726 1.6203 -1.9332 3.2805 2.3728 -2.0861 4.9566 0.8164 -1.2784 -0.6924 -0.6880 4.5724 2.8574 -1.9762 -2.7043 -3.4202 -1.7125 1.8122 -2.9817 -0.3556 -2.8140 1.6587 -0.2796 -1.5170 -2.0628 0.1523 0.8267 -1.9598 0.4042 -0.6695 -0.5501 0.7710 -1.0751 3.6635 1.1799 -1.3494 2.0979 -1.7277 -1.5834 -3.3826 -0.4782 1.1911 -1.3111 0.3733 4.0325
-3.9713 -1.7370 -2.4484 -4.8224 0.5555 -2.2102 1.6885 1.4842 -5.0197 -1.0276 -4.7891 1.6416 -0.7470 1.2895 -1.2637 1.5609 -1.0170 -3.9616 -3.0427 -2.9049 1.2027 -1.9833 -0.2588 1.8791 -3.0352 -0.2179 -0.7253 3.0314 -0.6451 -1.3457 0.5783 -0.6090 -1.3966 -0.6766 0.4802 2.8773 0.1923 3.3771 3.1238 -0.7939 4.6046 2.3641 -1.8765 4.1059 1.7448 3.9722 -0.0507 2.7863 3.8258 1.0859 1.8952 3.8092 -1.3007 2.3180 3.5354 0.8901 0.5968 3.4835 -1.5122 0.9195 -1.9554 2.6642 1.8647 2.2451 1.1971 -3.8900 -0.9437 -3.6066 1.3392 -3.5899 -0.3134 -2.1245 1.7822 0.0695 -1.8272 -1.3609 -1.2041 0.8736 -1.6566 -0.8353 -0.5729 -0.5789 0.0852 -1.0963 3.3301 -0.4593 0.0966 1.8102 0.0137 -3.3397 -1.8590 -2.5964 1.1426 -0.9240 2.1545 2.5560
-5.1811 -0.0204 -1.8809 -3.0910 0.2968 -3.1167 1.7384 1.2114 -5.0920 -0.4237 -4.3578 2.3446 -0.7297 1.2487 -1.1678 1.4289 -1.1482 -3.8737 -2.7168 -3.2166 1.1676 -2.2626 -0.3843 1.9799 -3.0571 -0.1223 -0.6670 2.9744 -0.7001 -1.2849 0.5208 -0.6926 -1.2885 -1.1405 0.5151 3.0694 -0.1087 3.3624 2.8901 -0.8802 4.4525 1.7622 -1.9033 3.8907 1.0976 4.1420 -0.0256 2.7730 3.9608 -1.3667 2.2485 3.9204 1.0426 1.9863 3.5616 -1.5420 0.9768 3.5147 0.8535 0.6043 -2.1150 2.5128 1.4919 2.0623 1.0892 -3.8478 -0.5483 -3.4174 1.5695 -3.7363 -0.4514 -1.9738 1.7086 -0.0261 -1.7674 -1.4431 -1.1720 0.9819 -1.7304 -0.8377 -0.4760 -0.6132 0.0383 -0.9946 3.3204 -0.3892 0.1257 1.6895 -0.1056 -3.2766 -1.6385 -2.6405 1.2317 -1.2231 2.1025 2.4065
-4.2154 -1.8538 -2.4968 -4.7278 0.5414 -2.2611 2.8180 1.5956 -4.5290 -0.8327 -4.5340 2.2072 -1.0794 1.1353 -1.4699 1.5965 -0.7286 -3.8400 -2.9932 -2.8454 1.5654 -2.1021 -0.0740 1.8742 -3.2072 -0.5288 -0.6695 2.8556 -0.6149 -1.0979 0.4350 -0.6121 -1.3460 -0.8725 0.8012 2.8608 0.7607 3.1584 1.8573 -0.0523 4.3584 0.8788 -1.3452 4.0718 0.6529 3.7230 -0.3561 3.0764 2.6934 -1.2543 2.5873 4.3663 0.4627 2.2248 2.3997 -1.2863 1.2757 4.0593 0.4192 0.8068 -1.7483 2.8391 1.2985 2.0027 1.5304 -3.5285 -0.8550 -3.3993 1.7525 -3.6540 -0.5091 -2.1087 1.6442 0.1459 -1.5991 -1.4209 -1.1046 0.9981 -1.7632 -0.9559 -0.4777 -0.7863 -0.0065 -1.1309 3.1052 -0.4123 0.3519 1.7561 0.2451 -3.1062 -1.8307 -2.4778 1.4504 -0.7292 2.2494 1.9425
-4.2011 -1.3046 -2.4402 -4.7682 1.0495 -2.0243 1.8560 1.4088 -4.6408 -1.7863 -5.0132 1.4241 -0.6718 1.2191 -0.9581 1.3844 -1.1267 -3.7708 -3.5331 -2.8556 1.0976 -2.1902 -0.4382 2.0272 -3.1293 -0.0536 -0.5869 2.8615 -1.1205 -1.1103 0.4465 -0.8001 -1.1744 -0.8304 0.3391 2.9204 0.0305 3.2524 2.8636 -1.1597 4.4547 2.4217 -2.3610 3.9288 2.1305 5.4104 0.6862 1.8190 5.1691 1.3444 0.5481 4.8197 -0.4908 2.0911 4.3634 0.7717 -0.3638 3.9400 -1.1033 1.1118 -2.3705 2.4864 2.2679 2.3524 0.9675 -3.5331 -1.5486 -3.8297 1.2247 -3.6537 0.0304 -1.9976 1.7186 -0.2338 -1.5621 -1.6399 -1.3601 0.9589 -1.8360 -0.8368 -0.4582 -0.6429 -0.0052 -0.8724 3.7020 -0.4881 -0.0603 1.7588 -0.1857 -3.0743 -2.3187 -2.6958 1.0914 -1.1718 2.0028 2.6295
-1.8356 -3.9935 -2.2479 -3.9407 -2.7379 -1.9768 3.0323 3.1362 -1.9388 -4.6906 -1.1665 3.1474 -0.9598 0.6629 -2.3867 2.0354 1.6480 0.0233 -4.4455 0.1960 0.6918 -1.6869 1.3613 0.9606 -1.9406 -2.1236 -0.6516 2.7471 -1.1290 -1.0477 0.4408 -0.4382 -0.8988 -0.5104 1.5340 2.3250 -2.8416 3.0501 3.6186 -3.2600 2.6042 5.2566 -2.4947 1.6157 5.7487 6.4962 -0.8425 -3.0961 5.3756 -1.5439 -3.6963 6.3676 -0.2809 -1.8809 4.2033 -1.6282 -3.0418 5.1057 -0.3781 -1.1705 -1.5117 1.1579 4.7871 2.4778 2.0072 -2.2322 -3.7205 -0.9743 2.4286 -2.4358 -2.6359 -1.9824 1.7014 -0.1484 -1.5457 -2.0488 -0.1020 0.8104 -1.9447 -0.6091 -0.6179 -0.7813 -0.0550 -1.4061 4.0591 -1.0066 -1.7366 2.0804 1.2645 -1.1434 -3.4723 -0.2635 1.2764 -1.6015 1.8192 3.6235
-1.5900 2.1605 -2.8108 -3.7498 1.2160 -3.4984 3.4355 -3.6401 -0.8691 -5.2039 -2.8634 -0.7450 0.0272 1.3500 0.3237 1.2936 -2.7632 -2.1751 -4.8106 -0.4902 0.5833 -2.2866 -0.5343 2.0548 -2.4582 0.1063 -1.7298 1.9547 0.2435 -2.3222 0.1484 -0.6071 -0.9195 -1.1279 -1.6500 2.8804 1.2503 -0.7275 4.5461 1.0641 0.7289 5.4971 -0.1593 1.2747 5.3958 4.7268 3.3101 -1.1994 3.2948 3.5320 -1.1163 5.2019 2.1359 -1.6521 2.4414 2.5598 -1.4836 4.2803 1.0816 -2.0386 -1.0234 0.5117 4.5188 3.0853 -2.4049 -0.7329 -4.2149 -2.5131 -0.1095 -2.8282 1.4436 -2.3256 1.5727 -0.6120 -1.1314 -2.4315 -0.9196 0.5954 -2.0068 0.2462 -0.2879 -0.5056 0.4033 -0.2486 2.9529 1.2775 -1.9387 1.9444 -2.0495 -1.4144 -3.8819 -1.2597 0.3702 -0.3956 -0.5469 3.9834
-4.2047 -1.8724 -2.2687 -3.4647 0.1958 -3.3730 0.2663 2.0375 -4.0244 -0.3079 -2.4830 3.3140 0.3067 -2.4405 -1.3078 2.6938 0.9558 -3.4273 -3.2448 -2.7489 1.6796 -2.3232 0.1580 1.4923 -2.5292 -0.4023 -1.1971 2.4861 0.7444 -0.3722 0.3174 -0.1367 -1.0376 -1.1753 1.1528 2.4654 0.1221 3.8076 1.7944 -0.5941 4.7843 0.5341 -1.6845 4.2237 -0.0147 4.3612 -1.9124 2.4065 4.9154 -1.7203 1.0779 3.2185 -1.2952 2.7547 4.2939 -0.9145 0.1980 2.5538 -0.4153 1.8105 -1.9964 2.9412 0.5828 0.6553 1.8604 -2.8051 -1.3525 -2.8636 2.7971 -3.0266 -0.9594 -2.5055 1.6746 0.0833 -1.4666 -1.5976 -1.0928 1.0544 -1.6523 -1.3734 -0.4353 -0.2448 -1.3934 -0.9791 3.0647 -0.2382 0.5795 1.7129 0.9850 -2.6837 -2.1307 -2.2647 1.8239 -1.1135 2.5969 1.5329
-2.7525 0.2082 -4.2878 -4.6498 -0.4329 -2.8562 3.6708 -2.4237 0.8670 -5.5629 -2.4586 0.6832 -0.3261 1.8653 -0.6303 2.2264 -2.4236 -1.3668 -4.6654 0.1956 0.6309 -1.9380 0.1154 1.7810 -2.3411 -0.5932 -1.9943 2.1398 0.3212 -2.4349 0.3232 -0.3378 -0.9474 -1.0956 -1.0675 2.8586 -1.0667 -0.8318 5.8967 -0.7504 0.7457 6.5837 -0.6099 1.7084 5.6574 6.0035 2.1661 -2.5992 4.8494 2.9044 -2.1187 5.8663 0.8918 -3.0065 3.6412 2.3142 -2.0748 4.5628 0.2540 -2.9592 -0.7379 1.1894 4.3113 3.1752 -1.3087 0.4445 -4.4266 -2.0059 0.6970 -3.2789 0.1970 -2.8743 1.7446 -0.0934 -1.0292 -2.3820 -0.5989 0.5210 -2.0255 0.1844 -0.7330 -0.5951 0.6732 -0.7593 3.4966 0.9295 -2.4929 2.3866 -1.4176 -0.6783 -3.8802 -0.7442 0.6129 -1.0021 -0.1262 4.2978
-4.8999 -1.2363 -0.9196 -4.3121 -0.4659 -3.1723 2.9915 2.1469 -3.9516 -0.4327 -2.9549 2.6680 0.2410 -2.4388 -1.1415 0.7128 0.7552 -3.5771 -3.6392 -2.2969 1.8746 -2.5364 0.3504 1.2932 -2.6009 -0.4454 -1.4018 2.2947 0.8413 -0.3057 0.2225 -0.1199 -1.0729 -1.4851 1.3662 2.3548 0.6315 3.4031 1.5815 0.5851 4.0682 -0.0349 -0.4467 3.6132 -0.7647 4.0682 -1.5455 2.7643 4.7005 -1.4144 1.4642 2.8836 -0.9541 3.0005 4.1098 -0.6892 0.4982 2.2480 -0.1663 1.9595 -1.2666 2.6767 -0.0229 2.5355 1.9237 -2.7642 -1.6404 -2.9659 2.4610 -3.7972 -1.1858 -1.9493 1.6047 0.1018 -1.4377 -1.8260 -0.9489 0.9883 -1.7715 -1.3196 -0.4832 -0.3334 -1.3730 -0.9366 2.8296 -0.0519 0.7518 1.5587 0.9525 -2.7048 -2.4404 -2.0755 1.7703 -0.7892 2.4492 1.2104
-4.9078 -1.2323 -0.8325 -4.3220 -0.4571 -3.0853 2.9672 2.1808 -3.9141 -0.3602 -3.0045 2.6732 0.2382 -2.4209 -1.1544 0.6650 0.7978 -3.5399 -3.5740 -2.3414 1.9220 -2.4997 0.3261 1.3776 -2.6135 -0.4334 -1.3210 2.3178 0.8407 -0.3000 0.2271 -0.1042 -1.0425 -1.3976 1.3819 2.3444 0.6087 3.4501 1.3796 0.4257 4.0819 -0.2404 -0.6523 3.5973 -0.8788 4.1229 -1.5854 2.7196 4.7469 -1.4320 1.4177 2.9406 -0.9973 2.9744 4.1458 -0.6981 0.4646 2.2958 -0.1969 1.9491 -1.3946 2.6619 -0.0587 2.4715 1.9929 -2.7363 -1.5700 -3.0036 2.4807 -3.8071 -1.1803 -1.8644 1.6034 0.1217 -1.4296 -1.7812 -0.9617 1.0423 -1.7572 -1.3124 -0.4344 -0.3302 -1.3579 -0.9207 2.8650 -0.0688 0.7369 1.5224 0.9951 -2.6788 -2.3787 -2.1045 1.8130 -0.8178 2.4647 1.1366
-3.4543 2.6793 -0.1006 -1.4796 3.6101 1.0242 1.7299 -3.2366 -4.0443 -4.6372 -3.0905 -2.0383 -0.8382 0.1522 -2.8515 1.3255 -2.9314 -1.3801 -4.5886 -0.9111 -0.3045 -2.2205 -1.2231 1.4381 -1.4725 1.2542 0.3625 2.9501 -0.3794 -0.8707 0.5149 -0.3319 -1.0291 -0.6699 -1.9515 2.0199 0.0344 -1.4566 4.9448 0.2467 0.2036 5.4554 0.0461 1.0920 4.4678 3.8429 3.7250 -0.0367 3.8198 3.2394 -1.4046 3.5883 2.8841 0.9816 3.5475 1.9464 -1.6561 3.2803 1.4917 0.7101 -0.2830 0.4430 3.2161 2.2596 -2.2553 -3.3928 -3.7030 -2.6229 -1.4005 -1.9473 2.6311 -0.0266 1.7352 -0.5889 -1.7572 -2.1981 -1.1561 -0.0753 -1.8014 0.1910 -0.6611 -0.6700 0.0141 -1.6425 3.2402 1.0444 -0.5581 1.7155 -2.0524 -2.1459 -3.5644 -1.5228 -0.5815 -0.3491 -0.8913 3.3374
-3.2537 -2.6051 -2.8720 -3.7398 -0.2621 -3.4452 2.7929 2.7417 -3.1074 -1.3556 -2.6827 3.6123 0.1100 -2.4682 -0.9791 0.3868 2.2034 -2.0952 -4.0493 -2.3569 1.6147 -2.5495 0.3367 1.3823 -2.9590 -0.8026 -1.1803 1.9488 0.4991 0.1859 -0.0834 -0.1559 -0.9593 -1.4024 1.2353 2.4506 0.4874 3.4782 1.6504 -0.0340 4.5814 0.3987 -1.2340 4.2673 -0.1170 5.3134 -1.9633 1.1493 5.4929 -0.6088 0.6586 4.0760 -2.4727 1.2844 4.4219 0.1398 0.3394 2.9189 -1.6593 0.9565 -1.8021 3.0876 0.5038 2.5222 1.5424 -2.7097 -2.4657 -2.6254 3.0987 -2.8439 -1.1717 -2.6402 1.3078 0.1836 -1.1495 -2.0387 -1.0734 1.1791 -1.9572 -1.4931 -0.2768 -0.5323 -1.4430 -0.7681 3.0848 -0.4112 0.4820 1.3389 1.4303 -2.0146 -2.9129 -2.0341 1.9341 -0.9891 2.5627 1.4336
-2.7132 3.0508 0.6996 -0.4056 3.5804 1.3567 1.5858 -3.1992 -4.6054 -2.2910 -3.1526 -1.8649 -0.9615 0.5864 -2.7719 1.2228 -2.9796 -1.9885 -4.4071 -0.8076 -0.6793 -2.4601 -0.8976 1.5257 -0.9386 1.3162 0.5761 2.8973 -0.5472 -1.3497 0.4695 -0.4454 -1.2647 -1.1154 -1.7122 2.4233 -1.3087 -1.7408 5.4624 -1.4073 -0.1987 6.2818 -1.3949 0.8498 5.4418 4.3895 3.3472 -0.3897 3.3405 2.7335 0.4033 4.8780 2.7105 -1.4691 2.8608 1.5245 0.0625 4.3626 1.4024 -1.8358 -1.2927 0.4358 4.0571 1.6644 -2.0282 -4.0659 -3.2179 -2.3952 -1.6034 -1.2581 2.7809 0.4014 1.6055 -0.6094 -2.1425 -2.0991 -0.8886 0.0572 -1.6122 0.4526 -0.4705 -0.6742 0.2289 -1.6329 3.3775 0.8401 -1.1124 1.4705 -2.0097 -2.7035 -3.3006 -1.3278 -0.7308 -1.2664 -0.9000 3.9320
-3.3357 -3.0843 -3.5315 -3.8355 -0.6995 -3.2345 2.6117 2.7277 0.8630 -5.2186 -3.1074 1.5012 -0.9147 1.2587 -1.6300 1.9218 0.1974 1.3934 -4.9031 -0.6000 0.3247 -2.3214 0.4680 1.3788 -2.2764 -1.9043 -1.6561 2.4803 -1.3015 -1.0421 0.1850 -0.5969 -0.7721 -1.3522 0.1043 2.8606 0.6143 2.0282 4.1655 0.2141 3.7304 4.1579 -0.9541 3.9975 3.5510 6.4240 -0.2844 -2.3597 5.3751 -0.5879 -3.3169 6.1647 -0.3224 -1.0406 4.1384 -0.8970 -2.8875 4.8343 -0.6695 -0.5763 -1.5944 2.7975 3.0542 1.9754 2.0405 -0.0261 -4.2292 -2.3879 1.4510 -2.7715 -1.7598 -3.0781 1.5361 -0.1178 -0.9576 -2.5083 -0.8100 0.5890 -2.2197 -0.6006 -0.8879 -0.9242 0.1271 -1.1517 3.8540 -0.9208 -1.4632 1.8359 0.7058 0.2776 -3.9461 -1.2294 0.7584 -0.8602 1.6983 3.2854
-4.2725 0.0737 -2.4409 -2.1556 -0.9166 -3.1764 0.2169 2.5257 -3.6817 -1.6128 -4.1825 3.3927 0.3264 -2.3934 -0.9538 2.3824 0.9769 -3.4819 -3.3816 -2.3903 2.1501 -2.0612 0.2259 1.9329 -2.4863 -0.2775 -0.7970 2.5236 0.7923 -0.3463 0.3125 -0.0769 -0.8469 -0.7155 1.3805 2.2832 0.1159 3.7194 0.5216 -1.1316 4.5427 -0.3869 -2.3587 4.0370 -0.1801 4.7242 -2.1289 1.8808 3.5420 -1.4971 2.4385 5.1714 -1.7674 0.6650 2.8743 -0.5717 1.7267 4.4514 -0.7675 -0.1043 -2.3383 2.9271 0.7502 0.5171 1.9939 -2.5435 -1.4021 -3.1091 2.8452 -3.1423 -0.8414 -2.0346 1.6271 0.1500 -1.3857 -1.4920 -1.0783 1.4216 -1.6114 -1.2874 -0.0797 -0.2233 -1.3328 -0.6716 3.3286 -0.2170 0.3918 1.5376 1.0674 -2.5904 -2.1702 -2.2121 2.1362 -1.0959 2.6354 1.1653
-2.1065 3.9404 -0.6005 -0.8625 2.7772 -2.3631 2.0113 -3.9474 -2.6763 -5.5270 -2.5344 -0.8752 -0.9079 -0.7763 -2.8061 1.3846 -2.8588 -0.2736 -4.7785 -0.1918 0.4607 -2.1118 -0.4158 1.5947 -1.6748 1.5422 -0.3594 2.6725 -0.1367 -0.4381 0.3073 -0.4334 -0.8604 -1.5701 -1.8641 2.5251 0.9269 -2.2372 4.2149 1.8446 -0.8154 4.6561 1.3110 0.3257 4.1895 3.4683 4.0544 -0.7808 2.3302 3.5754 -0.0181 4.2566 3.1822 -1.4341 2.0821 2.2557 0.0605 3.9895 1.7576 -1.3499 0.0994 0.0876 3.4317 2.4198 -2.7669 -2.3475 -4.4413 -2.2043 -0.4152 -1.9768 2.6382 -1.3525 1.6269 -0.7281 -1.3676 -2.4658 -0.8241 0.1816 -2.0103 0.1601 -0.8879 -0.8288 -0.4067 -1.6384 2.9302 1.3111 -0.6512 1.7619 -2.2339 -1.2635 -3.9533 -1.0159 0.0868 -0.2078 -1.2168 3.3578
-3.2165 2.6198 1.0176 -1.1164 3.1653 2.1641 1.3949 -2.7001 -4.5338 -2.1694 -2.7935 -2.4925 -0.8456 0.8039 -2.6361 1.1260 -2.7817 -1.8496 -4.4757 -0.7525 -1.1679 -2.7797 -1.1995 1.2219 -1.2285 1.1381 0.7886 2.8961 -0.4448 -1.0062 0.4738 -0.2397 -1.0375 -1.5768 -2.2206 2.1089 0.2853 -1.2983 4.3364 -0.2372 0.0383 5.3367 -1.4443 0.5173 4.9930 4.5870 3.3493 0.0132 3.8562 2.5650 0.9920 4.7090 2.9065 -1.2508 3.3026 1.3924 0.6358 4.1290 1.6302 -1.6315 -2.0181 -0.2091 3.8797 1.9589 -1.8104 -3.7867 -3.2131 -2.2953 -2.0841 -1.7114 2.5620 0.9138 1.6439 -0.4302 -1.8606 -2.2709 -0.9681 -0.1819 -1.7554 0.4385 -0.4491 -0.6710 0.3749 -1.4986 3.4348 0.9123 -0.7301 1.5133 -1.8030 -2.4854 -3.3795 -1.2957 -1.1427 -1.2011 -1.1713 3.4234
-4.2963 1.9097 -1.9478 -2.8304 3.6801 -1.0895 3.3285 -3.4308 -1.5129 -5.2903 -3.5016 -0.3295 -0.6063 -0.6158 -2.7714 1.2561 -2.6358 0.0328 -4.8958 -0.7590 -0.1423 -2.3416 -0.6028 1.4473 -2.3105 1.3520 -0.5539 2.4892 0.1887 0.1417 0.2242 -0.1573 -0.6533 -1.3544 -1.7667 2.4096 1.3558 -1.2038 3.6697 1.6661 0.4144 4.2554 0.6408 1.2578 4.0505 4.7769 3.4860 -1.3511 4.9328 2.1604 -1.9215 3.8967 3.6922 -0.3554 4.2058 1.1340 -1.4456 3.1023 2.5868 0.1508 -0.4775 0.6053 3.4010 2.5925 -2.4240 -1.8503 -4.2430 -2.8697 -0.2841 -2.8667 2.2660 -1.6175 1.6129 -0.4514 -0.9145 -2.5107 -1.1133 0.0316 -2.1501 -0.0784 -1.0234 -0.7735 -0.3180 -1.5915 3.2368 1.3602 -0.3846 1.7976 -1.9513 -0.8323 -3.9452 -1.5310 -0.1432 -0.2227 -0.6831 3.1251
-1.9567 -0.6999 -4.2823 -3.3606 1.1576 -3.4731 3.9376 -1.9412 1.2570 -4.3592 -3.0414 1.3881 -0.6743 1.8977 -0.3927 1.4359 -2.4381 0.4555 -5.2638 -0.1386 0.1032 -2.8184 0.2746 1.8537 -2.5227 -0.5667 -1.8964 1.8074 -0.2408 -1.8225 -0.0775 -0.3415 -0.2961 -2.0487 -0.7751 3.1066 0.6497 -0.4999 4.4626 1.4722 1.0398 4.3648 0.7823 1.9652 3.6778 5.3964 1.9988 -2.4889 4.1189 2.6737 -2.3455 5.4636 0.6582 -2.4077 2.9981 1.9583 -2.1415 4.2543 -0.1151 -2.1936 -0.4810 1.4501 3.1895 3.1232 -0.9607 1.0444 -4.7533 -2.2306 0.5558 -2.2109 0.2425 -3.1323 1.3556 -0.1760 -0.3762 -2.9162 -0.5303 0.5765 -2.3938 0.2453 -0.6216 -0.9645 0.7045 -0.4259 3.0713 0.5093 -2.0497 1.9619 -1.3283 0.4025 -4.3614 -0.9134 0.3913 -0.6651 0.1619 3.5167
-2.8620 3.3528 0.6942 -0.6491 3.4046 -0.3883 1.0174 -3.9204 -2.0427 -5.2569 -2.4958 -2.0407 -0.9551 0.1766 -2.9227 2.3104 -1.9796 -3.3639 -4.7557 -0.7480 0.1028 -2.1818 -1.3043 1.3038 -1.6603 1.2517 0.2827 2.7580 -0.2351 -0.7159 0.3520 -0.2658 -1.0592 -0.6973 -2.2799 1.6191 1.7893 -1.4062 3.1440 1.6054 -0.1652 4.3653 0.3507 0.3058 4.4567 3.5960 3.7893 0.4730 3.3576 2.7493 1.4568 3.5347 3.5024 -0.8395 3.0815 1.4957 1.0553 3.2594 2.1452 -1.2729 -0.5417 -0.3475 3.5221 1.2816 -2.8047 -1.4495 -4.2285 -2.2844 -1.4124 -1.9385 2.6324 -0.2538 1.6280 -0.4112 -1.7137 -2.3946 -1.1500 -0.1854 -1.9789 0.1971 -0.7554 -0.8228 0.0335 -1.7109 3.0217 1.1832 -0.3630 1.7468 -1.8096 -2.2828 -3.8561 -1.3554 -0.4651 0.0888 -1.2564 2.7622
-1.9523 3.6221 -0.4441 -0.1593 3.5604 1.2394 1.8960 -3.7775 -3.5944 -3.6141 -3.0527 -1.4504 -0.8762 0.5187 -2.7487 1.1045 -3.0185 -1.1743 -4.7125 -0.0102 -0.5109 -2.5355 -0.8739 1.4399 -1.2561 1.4651 0.5703 2.8068 -0.4862 -1.0225 0.3686 -0.3708 -1.0036 -1.1652 -1.9360 1.9558 -0.3950 -2.2385 4.8795 -0.2333 -0.7836 5.8354 -0.4931 0.3376 5.1425 4.0859 3.5866 -0.7681 3.9125 2.7726 0.4210 3.8241 3.0719 -1.9828 3.4884 1.5016 0.3093 3.3912 1.6914 -2.1063 -0.8330 0.0571 3.7626 1.7631 -2.5165 -3.3494 -4.1638 -1.9610 -1.3605 -0.7918 2.8178 0.0877 1.5232 -0.7327 -1.7871 -2.4413 -0.7055 -0.0586 -1.7903 0.5800 -0.5375 -0.7293 0.2512 -1.5590 3.2120 0.9425 -1.0027 1.4278 -2.2171 -2.0490 -3.8185 -0.8364 -0.6368 -0.8433 -1.2594 3.5035
-4.1620 1.8163 -2.1731 -2.7510 3.6379 -1.3248 0.8839 -3.7584 -0.2954 -5.1149 -3.6138 -0.5387 -0.4246 -0.6190 -2.8109 2.9062 -2.3718 -1.5401 -4.8039 -0.8411 -0.3756 -2.3540 -0.6123 1.3458 -2.2325 1.3284 -0.6818 2.5379 0.2424 0.2177 0.3155 -0.1736 -0.6560 -1.3949 -1.7253 2.3924 -0.6367 1.0362 3.5191 0.9916 1.2160 4.1271 1.7340 0.1055 3.9867 4.8447 3.5485 -1.2121 5.0413 2.2197 -1.7619 3.9097 3.7574 -0.2681 4.3055 1.1898 -1.3083 3.1076 2.6480 0.2152 0.9922 -0.9706 3.3602 1.3272 -2.6229 0.1324 -4.0987 -2.9351 -0.4796 -2.7523 2.2038 -1.7964 1.7175 -0.4277 -0.8634 -2.4253 -1.1417 -0.0705 -2.0357 -0.1089 -1.1173 -0.6393 -0.3349 -1.6356 3.2884 1.4163 -0.2938 2.0215 -1.9108 -0.8192 -3.8379 -1.5918 -0.3226 -0.2611 -0.6065 3.0486
-1.0838 -1.8668 -3.2190 -2.1146 -3.8479 -2.2102 3.1182 3.6749 -1.2957 -2.3068 -2.4308 3.1175 -0.8860 1.2239 -1.8135 2.1422 1.9673 0.4923 -4.2357 -0.4481 1.1907 -1.6833 1.1170 1.5267 -1.4592 -1.9798 -0.7535 2.9482 -0.6131 -0.9548 0.6264 -0.0409 -0.5867 -0.6042 1.2048 2.9776 -1.8241 3.9992 3.2378 -2.5005 4.4295 4.7905 -2.4381 3.4336 5.6902 3.9206 -3.0952 -4.3033 2.7954 -3.4136 -3.4433 4.6593 -1.9960 -4.0685 2.5036 -2.6212 -2.3964 4.3428 -1.1369 -2.9411 -1.8213 2.2408 5.1425 2.5495 2.5922 -1.7106 -3.1987 -1.7429 2.6334 -2.0012 -2.3461 -2.1173 1.8317 0.3600 -1.2684 -1.8163 -0.3304 1.1013 -1.7205 -0.5247 -0.4057 -0.6308 0.3214 -1.0211 3.2986 -1.4302 -2.1452 2.1967 1.7167 -0.7100 -3.1460 -0.8231 1.6029 -1.4622 2.4064 3.8609
-3.7480 1.9789 -2.5335 -2.2197 3.5940 -1.4848 3.4450 -3.4642 -1.0420 -5.3353 -3.3367 0.2235 -0.6562 -1.1439 -2.6129 1.4435 -2.4195 0.4321 -4.8945 -0.5581 0.2232 -2.2719 -0.3834 1.5168 -2.2428 1.2904 -0.6900 2.4958 0.4094 -0.0849 0.2399 -0.2102 -0.6871 -1.7658 -1.5995 2.7465 0.9852 -1.5264 4.0351 1.5777 0.0157 4.6076 0.7185 1.0263 4.3942 4.5621 3.5771 -2.0735 3.1441 3.6811 -1.7816 5.2308 2.4482 -1.7781 2.5006 2.6539 -1.1996 4.5402 1.3430 -1.1370 -0.4969 0.5782 3.7450 2.6758 -2.5481 -1.5299 -4.3807 -2.6812 -0.1765 -2.3831 2.1557 -1.9143 1.6341 -0.4700 -0.9652 -2.5319 -1.0608 0.1873 -2.1427 -0.1887 -0.9966 -0.7855 -0.5714 -1.5339 3.2256 1.4382 -0.8679 1.9042 -1.9099 -0.5870 -3.9981 -1.3815 0.0873 -0.4700 -0.7367 3.4778
-1.8974 3.9515 -0.1594 -0.5161 2.7765 -1.8112 3.2070 -2.6810 -2.6888 -5.8127 -2.2402 -1.0072 -1.0610 -0.6459 -2.6339 1.3628 -3.0354 -0.2369 -4.9494 -0.1094 0.6365 -2.3102 -0.6125 1.7464 -1.6760 1.5135 -0.0100 2.5251 -0.2645 -0.2759 0.1402 -0.5865 -0.6471 -1.4272 -2.0638 2.3643 1.5174 -2.2995 3.0953 2.3766 -0.8390 3.5238 1.6010 0.2570 3.4976 3.2504 3.9353 -0.6623 2.6000 3.3889 0.5144 3.6275 3.1205 -1.6639 2.3684 2.0674 0.5996 3.3923 1.6904 -1.5643 0.2411 -0.0471 3.1023 1.9435 -2.8058 -2.4506 -4.7042 -1.9371 -0.5904 -1.7630 2.6821 -0.9631 1.4517 -0.8222 -1.1884 -2.6699 -0.8268 0.2929 -2.1118 0.2161 -0.6614 -0.9696 -0.3845 -1.4381 2.7674 1.1865 -0.4848 1.5896 -2.3282 -1.2144 -4.1619 -0.9046 0.1401 0.0684 -1.3515 2.8392
-2.3131 3.2773 -0.2639 -0.1325 3.7869 0.7548 2.2855 -4.0585 -3.3110 -4.3879 -2.9267 -1.4149 -0.9685 0.0790 -2.6873 1.6226 -2.9732 -0.9589 -4.3402 -0.5329 0.0490 -2.1021 -0.6164 1.8746 -0.8193 1.4441 0.4952 3.0383 -0.3238 -1.6193 0.6478 -0.4274 -1.1020 -0.9523 -1.7284 2.7086 -0.8223 0.6590 4.6273 -0.9630 0.3082 6.3334 -1.1421 -0.9978 6.5932 3.5212 3.8992 -2.1272 3.1982 3.0548 -3.2631 3.6623 3.3597 -0.9036 3.0609 1.7273 -3.0972 3.4980 1.9296 -0.7205 -1.1810 -1.7949 5.3835 1.7946 -2.8644 -3.2734 -3.4767 -2.4036 -0.7888 -0.8818 2.8180 -0.1258 1.6712 -0.8260 -2.0371 -1.9704 -0.8271 0.3839 -1.4883 0.3984 -0.3724 -0.5939 0.0009 -1.5202 3.2018 1.1453 -1.7722 1.6990 -2.3356 -2.0075 -3.3326 -1.2086 -0.1206 -1.0336 -1.0426 4.2833
-4.3620 0.2852 -2.5071 -3.4013 2.5138 -2.8961 3.8960 -2.3704 0.0746 -2.3607 -3.8335 2.3320 -0.5487 -1.7224 -2.0986 2.1925 -0.4558 0.8083 -3.8594 -1.9506 0.8541 -2.4038 0.6152 1.5557 -2.4036 1.0645 -1.1843 2.4263 1.2885 -1.7339 0.3517 0.1937 -1.1489 -1.0852 1.1174 2.6862 -2.0007 2.3235 5.3322 -2.9513 1.3086 6.3937 -3.1943 0.0894 5.8841 6.0856 0.9305 -3.9272 6.0853 1.2451 -2.5102 4.9221 0.7604 -4.5803 4.9212 1.3597 -1.8470 3.6637 0.8889 -3.8664 -2.5914 -0.0838 4.5784 3.1155 -1.8486 -0.8121 -2.0315 -2.8011 1.7658 -3.0810 1.0838 -2.5335 1.7276 -0.0387 -1.5173 -1.8944 -0.5468 0.7306 -1.9648 -0.3249 -0.7700 -0.6567 -0.7068 -1.4163 3.6639 1.1570 -2.5478 2.3669 -0.7840 -0.3636 -2.6717 -1.7813 1.0985 -1.9559 1.0236 4.1665
-3.0288 2.4508 -2.4330 -0.9090 3.6387 -2.0578 2.8356 -4.3356 -1.0092 -4.6576 -2.8378 1.0404 -0.7938 -1.2192 -2.4477 2.1378 -2.2922 0.5367 -4.2618 -0.0756 0.7915 -1.5229 0.4427 1.8361 -1.4451 1.6708 -0.6908 3.0506 0.0252 -1.1708 0.6736 -0.3985 -0.8502 -0.0089 -0.1639 2.6143 -0.1468 -1.7739 5.1930 -1.0492 -1.0923 6.5272 -1.6071 0.0952 6.2377 3.1677 3.3967 -3.8099 3.6843 2.1067 -4.2303 2.6423 3.5434 -2.5808 3.6326 1.0541 -3.3939 2.5893 2.4092 -1.6760 -1.3103 0.5205 4.8850 2.4176 -3.2475 -1.5659 -3.6219 -2.1923 0.9581 -1.5751 2.2848 -2.0640 1.8917 -0.9200 -1.4241 -1.8803 -0.4497 0.6677 -1.6546 0.1715 -0.7004 -0.5605 -0.5579 -1.4396 3.0443 1.2070 -2.0737 2.1641 -2.2163 -0.6906 -3.3200 -0.8580 0.7994 -0.5776 -0.3867 4.2214
-1.5528 4.0725 -1.1703 -0.5077 2.5041 -2.7378 1.9613 -4.3968 -1.8762 -4.4897 -2.8505 1.1467 -0.9546 -1.0073 -2.4934 1.9213 -2.5431 0.0965 -4.1251 -0.0620 0.9365 -1.2764 0.3401 1.9295 -1.1208 1.7682 -0.4448 3.0760 -0.1031 -1.3236 0.6856 -0.3670 -0.9782 -0.1944 -0.7339 2.9009 -0.2363 -0.1507 5.8935 -1.7512 -0.3826 6.7375 -2.7499 -0.7850 5.9338 3.5754 3.4173 -3.7110 4.0028 2.1192 -4.2008 3.0079 3.5254 -2.4964 3.8431 1.0243 -3.4359 2.8416 2.3446 -1.6672 -2.3128 -0.9426 4.5620 2.3931 -3.1965 -2.0783 -3.4751 -2.1739 1.0568 -1.5144 2.6321 -1.6189 1.8331 -0.9059 -1.6674 -1.7465 -0.4226 0.7110 -1.5751 0.3280 -0.6012 -0.6002 -0.4288 -1.4705 3.2156 1.1378 -2.1302 2.0246 -2.2986 -1.1042 -3.1797 -0.8384 0.8953 -1.0186 -0.6246 4.4066
-3.5680 3.4192 0.1150 -1.1355 3.3250 -0.2390 2.9850 -3.1016 -2.2902 -3.2495 -3.3179 -2.0842 -1.0339 -0.1138 -2.6363 1.1196 -2.5880 -0.4074 -5.1551 -1.3471 -0.1266 -2.7622 -1.2168 1.4904 -2.3859 1.2718 0.2807 2.3437 0.1967 0.0385 0.0145 -0.0644 -0.5662 -1.4060 -2.2316 2.1140 1.1375 -1.4005 3.5528 1.2230 0.2177 4.2094 0.1146 0.9411 3.9807 5.0365 3.3288 -1.0777 4.1661 3.4585 0.0769 4.9761 2.2269 -1.8463 3.2953 2.4785 0.3777 4.0602 1.1543 -1.5022 -0.8842 0.1880 3.2505 2.2373 -2.0508 -2.3669 -4.1298 -2.6645 -1.5373 -2.4390 2.5915 -0.4469 1.3686 -0.2728 -1.0205 -2.7349 -1.2362 -0.0216 -2.3841 0.0928 -0.6691 -1.0747 -0.0365 -1.4112 3.2346 1.2831 -0.4470 1.5605 -1.7633 -1.2046 -4.0621 -1.7157 -0.5356 -0.4684 -1.0520 2.9500
-1.8805 4.0390 0.1033 -0.5412 3.0992 -1.7242 2.7834 -4.0799 -1.7183 -5.8394 -2.2184 -0.6838 -0.7942 -0.3280 -2.7845 1.4393 -2.7099 0.1548 -4.7515 0.2222 0.1672 -2.2101 -0.6817 1.5185 -1.5538 1.6111 -0.0161 2.7585 -0.0634 -0.5544 0.3516 -0.3749 -0.7660 -1.4226 -2.2364 1.9950 -0.2434 -2.2637 4.8033 1.0518 -1.1394 5.1461 1.3738 -0.3653 4.0961 3.4815 4.0150 -1.6526 3.3968 3.6098 -0.2614 3.3226 3.1046 -2.6296 3.1466 2.3259 0.0519 3.0783 1.7137 -2.2916 0.5658 -0.6648 2.9315 2.1497 -2.9989 -2.0331 -4.6733 -1.8761 -0.5450 -1.7402 2.8656 -0.8352 1.6370 -0.7861 -1.2766 -2.5441 -0.7452 0.0442 -1.9292 0.3648 -0.7917 -0.7458 -0.1561 -1.5698 2.9693 1.3403 -1.0031 1.7367 -2.2599 -0.9497 -4.0386 -0.7354 -0.1050 -0.3349 -1.6277 3.1796
-2.4255 3.9158 0.1995 -0.1548 3.5157 -0.6588 2.1675 -4.2013 -2.1821 -3.7147 -2.6715 -1.8544 -0.8319 -0.0085 -2.7848 1.2804 -2.7818 -0.1268 -4.8372 -0.1412 0.0477 -2.3521 -0.6770 1.5354 -1.5044 1.6374 0.1901 2.7881 -0.1714 -0.6964 0.3568 -0.3010 -0.8118 -1.4967 -2.1818 2.0535 -0.7016 -2.2234 4.9927 0.4424 -1.0168 5.5353 0.8397 -0.1851 4.5575 3.6817 3.9333 -1.5285 3.6489 3.4265 -0.1686 3.4167 3.1122 -2.5601 3.3449 2.1369 0.0618 3.1138 1.7138 -2.3135 0.2223 -0.5051 3.2864 2.0606 -2.9210 -2.3142 -4.3479 -1.9523 -1.0904 -1.5495 2.9479 -0.5555 1.5862 -0.7667 -1.4034 -2.4873 -0.7146 0.0309 -1.9072 0.4818 -0.7015 -0.7504 0.0353 -1.5605 3.0577 1.2477 -1.0522 1.6134 -2.2638 -1.1911 -3.9350 -0.8796 -0.3241 -0.6249 -1.5403 3.3878
-2.3846 3.9977 -0.5258 -0.9530 2.8384 -2.1459 2.9578 -3.8305 -1.1136 -5.3406 -2.9394 -0.9421 -0.8606 -0.7778 -2.4822 1.6092 -2.3548 0.6342 -5.0217 -0.3389 0.0518 -2.6134 -0.2802 1.7521 -1.8506 1.6290 -0.1747 2.5411 0.4293 -0.2994 0.2351 -0.2869 -0.4968 -2.0814 -1.6625 2.7895 -1.0600 -0.7929 5.5266 0.4584 0.0744 5.5763 0.9794 0.3012 4.3587 4.7861 2.7462 -3.1161 5.3944 1.6347 -2.4074 3.4986 3.0642 -2.8921 4.6667 0.9106 -1.5379 2.7165 2.2918 -1.9431 0.1531 -0.2465 3.3026 2.5430 -2.6622 -1.4755 -4.3510 -2.3817 -0.4881 -2.1361 2.6808 -1.2198 1.5799 -0.5443 -0.9492 -2.6577 -0.7531 0.3153 -2.1009 0.2305 -0.6990 -0.8563 -0.3355 -1.3367 3.2693 1.2405 -1.3108 1.9073 -1.9467 -0.4869 -4.0729 -1.1062 -0.0475 -0.9550 -0.8290 3.7838
-4.1564 0.3630 -2.8949 -3.0157 2.5407 -2.9509 3.6960 -2.5405 0.4204 -0.5204 -2.7407 2.2687 -0.6106 -1.7809 -2.1092 1.9535 -0.6240 1.0402 -3.5933 -2.4165 0.9470 -2.7323 0.3808 1.5667 -2.4907 0.9588 -1.1496 2.3998 1.1520 -1.4337 0.2769 0.0794 -1.0429 -1.5525 1.4364 2.4404 -0.9139 0.9632 5.3792 -2.2598 0.7846 6.4820 -3.4559 0.8498 5.8739 5.5641 1.2893 -4.3103 4.1764 1.2664 -4.7370 5.8679 1.2150 -3.0023 3.1915 1.1839 -3.8244 4.8053 1.1342 -2.0162 -3.3289 1.0711 4.4482 3.0089 -1.9877 -0.5230 -1.6204 -2.9099 1.7551 -2.8591 1.0785 -2.6086 1.6738 -0.1711 -1.3090 -1.9591 -0.6350 0.7580 -2.0530 -0.4376 -0.7475 -0.7296 -0.7989 -1.3815 3.5192 1.1063 -2.4099 2.2208 -0.9336 -0.1191 -2.4563 -2.0031 1.1310 -2.0461 1.1260 4.0587
-4.2033 1.5794 -1.7616 -2.4130 3.2561 -1.9471 3.5568 -3.2098 -0.5733 -3.8665 -3.9934 1.0780 -0.6337 -1.3074 -2.3807 2.4940 -1.1287 0.7206 -4.2277 -1.2017 1.0095 -1.7325 0.0383 1.9002 -2.0665 1.2596 -0.5579 2.6028 1.1026 -1.3828 0.5359 -0.0140 -0.8529 -0.7254 -0.6330 3.2396 -1.9900 -0.6315 6.0171 -2.6764 0.8726 6.5910 -2.4974 1.8955 5.7385 5.3520 1.6627 -4.6170 3.9227 1.8050 -4.8274 5.8240 1.3420 -3.3992 3.0676 1.6055 -3.8080 4.9023 1.1295 -2.2978 -1.7801 1.4900 4.5469 3.2534 -2.1398 -1.2300 -3.0790 -3.0861 0.8494 -2.7091 1.7815 -1.8190 1.8511 -0.2123 -1.4112 -1.8412 -0.9312 0.7438 -1.8399 -0.2381 -0.6114 -0.5955 -0.5883 -1.3862 3.5762 1.2332 -2.4979 2.5447 -1.2088 -0.5053 -3.1217 -1.7101 0.8765 -1.4845 0.1807 4.5556
-2.8857 2.7137 -2.1406 -0.7137 3.7987 -1.7408 2.7090 -4.3211 -1.1186 -3.5694 -3.6135 0.8134 -0.8710 -1.1127 -2.3734 2.0310 -2.2864 0.4449 -4.1538 -0.8501 0.6327 -1.8720 0.5589 1.9404 -1.2975 1.7692 -0.4914 3.0825 0.0083 -1.2864 0.6994 -0.2908 -0.8746 -0.3666 0.3409 2.9184 -0.4515 0.6989 5.9397 -1.6316 -0.2350 6.8308 -2.4200 -0.9844 6.0422 3.3915 3.1867 -4.1382 3.9101 1.8648 -4.4419 2.8036 3.4239 -2.9523 3.7998 0.8730 -3.5394 2.6915 2.3569 -1.9748 -2.0784 -0.8440 4.6418 2.4118 -3.1900 -1.6664 -2.8541 -2.6252 0.8897 -1.4316 2.4740 -1.8186 1.8662 -0.8729 -1.4942 -1.7863 -0.3899 0.7657 -1.6149 0.2899 -0.5819 -0.5712 -0.4472 -1.3857 3.1496 1.1256 -2.2644 2.1077 -2.1836 -0.7783 -3.0078 -1.2650 0.7493 -1.0767 0.0283 4.4527
-3.2548 2.7276 0.2030 -1.7242 3.9066 -1.3052 3.4127 -4.0473 -1.5005 -4.4641 -2.9554 0.8581 -0.6146 -0.9702 -2.6440 2.5391 -2.2074 0.1991 -4.0131 -0.2095 0.7797 -1.1891 0.1100 1.8007 -1.1326 1.6653 -0.5013 3.1739 0.3050 -1.3680 0.8778 -0.3740 -0.9704 -0.1531 -0.9860 2.7935 -1.0091 -2.2817 5.4124 -2.0798 -1.3758 6.4579 -2.4138 -0.1732 5.9611 3.3497 3.6171 -4.0726 2.3603 3.5727 -3.0116 4.2009 2.5899 -4.2434 2.2987 2.5070 -2.1941 4.1377 1.4397 -3.3579 -1.7893 0.0758 4.6787 2.8969 -2.9612 -1.9726 -3.4130 -2.3365 0.7614 -2.2750 2.5517 -0.9320 2.1023 -0.7302 -1.6491 -1.6386 -0.6090 0.5499 -1.4399 0.1979 -0.7234 -0.3630 -0.4391 -1.5660 3.2107 1.3899 -2.3842 2.5345 -2.0373 -1.0191 -3.0830 -1.0002 0.6932 -1.0451 -0.9622 4.2666
-1.8807 -1.4356 -3.8320 -3.2312 0.4883 -3.0811 4.1976 0.9557 1.8592 -4.3998 -3.7229 0.8393 -0.4949 1.7648 -0.2432 2.0922 -0.6571 1.8803 -4.8000 -0.9454 0.6080 -2.6437 0.4198 2.0796 -2.1750 -1.0330 -1.4328 2.3416 -1.2356 -1.1912 0.3113 -0.4082 -0.1597 -1.7581 -0.0519 3.5802 0.6926 1.3492 4.6932 0.8382 3.0739 4.4429 -0.2068 3.6026 3.7842 3.9145 -0.0038 -4.9688 2.5194 -0.3804 -4.8264 4.7276 -0.0022 -3.8966 2.0419 -0.7468 -3.6242 4.2150 -0.4052 -2.5988 -1.1959 2.6016 3.4405 3.3829 0.9819 0.8573 -3.7387 -2.7800 1.2570 -2.0265 -0.3678 -2.7778 1.6942 -0.1027 -0.4268 -2.4374 -0.6669 1.0459 -2.0639 -0.0452 -0.2896 -0.6760 0.5500 -0.2332 2.9228 -0.7583 -2.4700 2.3964 0.0254 0.9045 -3.7295 -1.4367 0.9426 -0.8302 1.3727 3.8373
-2.7255 3.2631 -1.1131 -0.4097 3.9874 -0.6901 2.7761 -4.1358 -1.7342 -1.8263 -3.4259 -0.1588 -0.9560 -0.5201 -2.4418 2.1717 -2.3319 0.1239 -4.1175 -1.0937 0.6845 -1.9330 0.0630 2.1776 -1.1585 1.7910 0.1208 3.0043 0.1861 -1.3945 0.6895 -0.2346 -0.8307 -0.7157 -0.6138 3.3299 -1.8811 -1.7326 5.9180 -2.7966 -0.6363 6.9289 -2.8698 0.6090 6.4297 3.8575 2.9222 -4.5753 2.6527 3.0646 -3.7784 4.6979 1.8971 -4.3480 2.3816 2.1779 -2.8043 4.4056 0.9392 -3.2958 -2.1589 0.7335 5.1736 2.2921 -2.9963 -2.1026 -2.8074 -2.7464 0.1131 -1.2940 2.8028 -0.9919 1.8037 -0.7104 -1.6150 -1.7497 -0.5885 0.8264 -1.5695 0.3988 -0.3167 -0.5949 -0.1653 -1.3231 3.2837 1.0622 -2.5635 2.1158 -2.0913 -1.0811 -2.9532 -1.4449 0.5471 -1.6150 -0.4301 4.7855
-3.6569 1.5189 -2.0052 -2.4945 3.3524 -0.8469 4.5815 -1.0113 0.8516 -2.6777 -4.8523 0.2418 -0.8067 -1.3007 -2.0732 2.4402 0.6062 1.1395 -4.1653 -2.4793 0.5612 -2.6616 -0.6249 2.2364 -2.2932 1.0659 0.0283 2.0417 0.8332 -1.9011 0.3271 -0.0966 -0.4489 -1.3323 -0.5205 3.4571 -1.8699 1.4382 5.7306 -1.9265 3.1401 5.3292 -1.7698 3.3803 4.0166 5.0621 -0.1471 -4.7783 3.7075 -0.6484 -4.9260 5.3871 0.6104 -3.7158 2.7739 -0.3530 -4.0031 4.3785 0.9348 -2.7226 -1.5744 2.1603 3.2602 3.4582 -1.2929 0.2788 -2.3370 -3.7292 0.5843 -2.4189 1.8943 -1.2283 1.6672 -0.2933 -0.9569 -2.1055 -1.2925 0.9960 -2.0549 -0.4059 -0.2372 -0.7888 -0.6638 -1.0229 3.1261 0.4592 -2.8495 2.5597 -0.2509 0.2663 -2.9485 -2.5015 0.6978 -1.6284 1.0701 4.0402

>  <OB_ATOM_TYPES> (1mmbA1)
C.3 C.3 C.2 O.2 O.2 O.2 O.2 C.3 C.3 C.3 N.am S.3 S.2 C.ar C.ar C.ar C.ar C.ar C.ar C.ar C.ar N.am N.am C.3 C.3 C.3 C.3 C.2 C.ar C.2 C.2 C.ar

>  <ENSEMBLE_RMSD> (1mmbA1)
1.714 2.026 2.188 2.323 2.351 2.412 2.488 2.551 2.561 2.668 2.766 2.803 2.841 2.863 2.941 3.221 3.234 3.236 3.241 3.290 3.333 3.369 3.381 3.394 3.423 3.453 3.465 3.465 3.475 3.494 3.510 3.517 3.528 3.538 3.558 3.604 3.617 3.637 3.665 3.668 3.685 3.700 3.714 3.725 3.742 3.745 3.779 3.845 3.971 4.106

$$$$
