
 OpenBabel03071213D

 33 35  0  0  0  0  0  0  0  0999 V2000
   46.8610  -36.4940   51.3370 C   0  0  0  0  0
   48.7840  -36.1460   52.8970 C   0  0  0  0  0
   47.7630  -42.0180   52.9250 O   0  0  0  0  0
   46.7560  -40.8270   50.6010 O   0  0  0  0  0
   50.5570  -38.0660   48.8950 O   0  0  0  0  0
   48.5070  -34.9340   46.7340 O   0  0  0  0  0
   51.9670  -34.3030   43.7170 C   0  0  0  0  0
   51.0420  -33.5000   42.7770 C   0  0  0  0  0
   52.1870  -33.6750   45.1100 C   0  0  0  0  0
   50.8080  -34.1630   41.3970 C   0  0  0  0  0
   50.9740  -33.8060   46.0610 C   0  0  0  0  0
   49.5550  -35.0600   41.2300 C   0  0  0  0  0
   48.8780  -38.0780   51.3260 C   0  0  0  0  0
   48.7780  -40.2470   49.8760 C   0  0  0  0  0
   48.4360  -37.7410   45.4080 C   0  0  0  0  0
   48.6030  -41.4840   51.9510 N   0  0  0  0  0
   50.6620  -35.2420   46.2130 N   0  0  0  0  0
   48.6280  -37.7230   47.8030 N   0  0  0  0  0
   51.8400  -39.0080   41.4950 C   0  0  0  0  0
   51.5690  -39.7590   42.6520 C   0  0  0  0  0
   51.1970  -37.7840   41.2510 C   0  0  0  0  0
   50.6390  -39.2930   43.5890 C   0  0  0  0  0
   48.7600  -36.1950   43.3410 C   0  0  0  0  0
   48.3890  -36.6150   51.4910 C   0  0  0  0  0
   48.5080  -38.7240   49.9700 C   0  0  0  0  0
   49.2790  -37.1970   46.6100 C   0  0  0  0  0
   49.5110  -36.1720   42.1950 N   0  0  0  0  0
   47.9690  -40.9710   50.9150 C   0  0  0  0  0
   49.3260  -38.1390   48.8410 C   0  0  0  0  0
   49.4630  -35.6890   46.5510 C   0  0  0  0  0
   49.0240  -37.3630   44.0980 C   0  0  0  0  0
   50.2680  -37.3070   42.1780 C   0  0  0  0  0
   49.9890  -38.0740   43.3560 C   0  0  0  0  0
  1 24  1  0  0  0
  2 24  1  0  0  0
  3 16  1  0  0  0
  4 28  2  0  0  0
  5 29  2  0  0  0
  6 30  2  0  0  0
  7  8  1  0  0  0
  7  9  1  0  0  0
  8 10  1  0  0  0
  9 11  1  0  0  0
 10 12  1  0  0  0
 11 17  1  0  0  0
 12 27  1  0  0  0
 13 24  1  0  0  0
 13 25  1  0  0  0
 14 25  1  0  0  0
 14 28  1  0  0  0
 15 26  1  0  0  0
 15 31  1  0  0  0
 16 28  1  0  0  0
 17 30  1  0  0  0
 18 26  1  0  0  0
 18 29  1  0  0  0
 19 20  2  0  0  0
 19 21  1  0  0  0
 20 22  1  0  0  0
 21 32  2  0  0  0
 22 33  2  0  0  0
 23 27  1  0  0  0
 23 31  2  0  0  0
 25 29  1  0  0  0
 26 30  1  0  0  0
 27 32  1  0  0  0
 31 33  1  0  0  0
 32 33  1  0  0  0
M  END
>  <MOLID> (1mmqA1)
1mmqA1

>  <SMILES_CANONICAL> (1mmqA1)
ONC(=O)C[C@H](C(=O)N[C@H]1Cc2cn(c3c2cccc3)CCCCCCNC1=O)CC(C)C	

>  <FINGERPRINT> (1mmqA1)
0000000000000011000000000000001000000001000000000011101000010000010000000001000000000001000000000100010110000001000001100001100000000000000001000101001000000000000000000000000000000000000000000000110000000000001000000000000000100000000000000000000000001100000000000110000000001000100000000000000000001001000010001100000000001000001100000000000000000100010000000000001110110000000000000001111000000000100010000000111000000000010000000010100000000000100000000000000000000000010000000000100000000100000000000001010000000000000000000000000000000000100000101000000000000000000000000000000000100000001001000000100000000000000001000000001000000001010000000000000000000001000000000011100000100100100001100001100000100000100000000000000000000001100100110101000000000000000111000000000000000100001110000000000010000000000000000000000000000000000010000000000000000000000000000001000000000000000000000000000000001100000000000000000000000010000000000000011000000000000011110010000000000100010000100000000000000010100000000010011000100000

>  <MACCS166> (1mmqA1)
000000000000000000000001010000000000000000001000010001000000000000011011010100100010100001110111001001011001011000101101110100111111101111111111011111101111011110111000

>  <OB_MW> (1mmqA1)
456.274

>  <OB_logP> (1mmqA1)
4.0272

>  <OB_PSA> (1mmqA1)
112.46

>  <OB_MR> (1mmqA1)
131.807

>  <OB_ATOMIC_CHARGES> (1mmqA1)
1.268e-05 1.268e-05 -0.40263576 -0.5395430888 -0.2733325528 -0.2714755773 0.0018846096 0.00205079 0.0234308424 0.0244831643 0.1151969025 0.1060561731 0.0095333854 0.0603201221 0.0589751344 -0.2029549132 -0.2039811014 -0.1974226956 0.0014811468 8.69087e-05 0.0171761871 0.001168524 0.071606079 0.0004898744 0.0845111922 0.1770679395 -0.3263162565 0.0873032104 0.2416844167 0.2615592516 -0.0013604235 0.0595998026 0.0133313526

>  <MCT_HBD> (1mmqA1)
4

>  <MCT_HBA> (1mmqA1)
8

>  <ENSEMBLE_TOTAL> (1mmqA1)
50

>  <ENSEMBLE_COORDS> (1mmqA1)
-2.6989 0.8332 4.8282 -0.7759 1.1812 6.3882 -1.7969 -4.6908 6.4162 -2.8039 -3.4998 4.0922 0.9971 -0.7388 2.3862 -1.0529 2.3932 0.2252 2.4071 3.0242 -2.7918 1.4821 3.8272 -3.7318 2.6271 3.6522 -1.3988 1.2481 3.1642 -5.1118 1.4141 3.5212 -0.4478 -0.0049 2.2672 -5.2788 -0.6819 -0.7508 4.8172 -0.7819 -2.9198 3.3672 -1.1239 -0.4138 -1.1008 -0.9569 -4.1568 5.4422 1.1021 2.0852 -0.2958 -0.9319 -0.3958 1.2942 2.2801 -1.6808 -5.0138 2.0091 -2.4318 -3.8568 1.6371 -0.4568 -5.2578 1.0791 -1.9658 -2.9198 -0.7999 1.1322 -3.1678 -1.1709 0.7122 4.9822 -1.0519 -1.3968 3.4612 -0.2809 0.1302 0.1012 -0.0489 1.1552 -4.3138 -1.5909 -3.6438 4.4062 -0.2339 -0.8118 2.3322 -0.0969 1.6382 0.0422 -0.5359 -0.0358 -2.4108 0.7081 0.0202 -4.3308 0.4291 -0.7468 -3.1528
-1.4437 0.5927 6.2393 0.0862 2.0588 4.9760 -3.0945 -4.9768 4.0705 -0.9120 -4.0044 5.2690 -2.3538 -0.1992 1.8554 -0.5969 2.1946 1.1352 1.4529 4.3390 -2.6948 1.6437 3.3755 -3.8412 2.3155 3.9016 -1.5359 0.3307 3.2161 -4.5697 1.4443 3.5332 -0.3598 0.2067 1.8587 -5.2310 -0.1052 -0.3272 4.3703 -0.4107 -2.5996 3.4083 -0.9982 -0.2849 -0.8783 -2.3454 -3.9692 3.4314 1.1421 2.1250 -0.3972 -0.1118 -0.6088 1.4000 2.5081 -2.0615 -4.5011 2.1712 -2.6480 -3.3350 1.8442 -0.8407 -4.9419 1.1386 -2.0696 -2.4849 -0.7361 0.8933 -3.1011 -0.8525 0.8816 4.8822 -1.0089 -1.2170 3.5457 0.0559 0.0842 0.1470 0.0626 0.8003 -4.2583 -1.2414 -3.5905 4.1623 -1.2479 -0.6226 2.1808 0.1481 1.5732 0.3848 -0.4825 -0.1310 -2.2525 0.8713 -0.3218 -4.1769 0.5192 -0.9553 -2.8988
-2.1946 1.5459 5.8274 -1.6293 2.2221 3.5276 -2.4256 -5.1299 4.3649 -0.9718 -3.4944 5.9030 -2.1669 -1.2564 1.5259 2.5485 0.7905 0.1152 1.1227 3.7676 -2.3767 1.7273 3.0998 -3.5887 1.9765 3.4554 -1.1726 0.8304 3.2386 -4.7979 1.1449 3.3544 0.0869 -0.3656 2.3068 -4.8562 -0.7807 0.0899 4.4222 -0.1737 -2.2891 4.0042 -0.6474 -0.4325 -0.6951 -1.5593 -4.1975 3.7603 0.5901 2.0324 0.2658 -0.0131 -0.3867 1.6939 2.0516 -1.6156 -5.1806 2.0236 -2.3231 -4.0335 1.2883 -0.3827 -5.3133 1.2275 -1.8760 -2.8981 -0.7516 1.0734 -2.7148 -1.9453 1.0509 4.4254 -1.1312 -1.1711 3.6678 0.4746 -0.3862 0.3278 -0.2340 1.1408 -4.0208 -0.9440 -3.3796 4.6822 -1.1660 -0.9660 2.1756 1.3277 0.8647 0.2395 -0.3114 -0.0360 -2.0746 0.5547 0.0330 -4.2702 0.5233 -0.7434 -3.0225
-1.8214 1.3674 5.5468 0.2722 2.2826 4.6277 -3.8692 -4.1183 4.2302 -1.6554 -3.7352 5.6885 -1.9125 -0.4045 1.5430 2.3856 1.0300 0.6620 0.4176 3.7521 -2.3041 1.1928 3.4277 -3.5594 1.2849 3.4416 -1.1061 0.2997 3.2040 -4.7589 0.4468 3.1067 0.1095 -0.7107 2.0796 -4.6433 -0.1845 -0.1330 4.4343 -0.5922 -2.5403 3.9165 -0.2134 -1.0761 -0.8023 -2.7176 -3.5760 3.6246 0.2117 1.6844 0.2053 0.3066 -1.0965 1.6102 2.5255 -1.1487 -5.4169 2.6572 -1.9941 -4.3750 1.5534 -0.0652 -5.3790 1.8355 -1.8420 -3.1811 -0.7027 0.5883 -2.6395 -0.8065 1.2454 4.4370 -1.0112 -1.1145 3.6340 0.7495 -0.6772 0.2994 -0.2229 0.9379 -3.9134 -1.7142 -3.3232 4.5339 -0.9336 -0.8257 2.1547 1.2181 0.7602 0.3856 -0.0081 -0.4552 -2.1249 0.7816 0.0668 -4.2902 0.9371 -0.8490 -3.1492
-1.2552 1.3345 5.4915 0.9706 1.9421 4.6337 -3.7084 -3.5408 5.8191 -2.8812 -3.6967 3.2708 -1.9196 -0.2343 1.4837 2.5218 0.4735 0.5428 0.8930 3.8957 -2.1618 -0.0599 4.4070 -3.2180 0.2116 3.7682 -0.8186 -0.8219 3.2902 -3.8977 1.0374 2.8804 0.0855 0.0946 2.3290 -4.6267 0.0863 -0.3150 4.2118 -0.8358 -2.5767 3.7978 -0.4344 -1.0568 -0.9965 -2.3894 -3.1719 5.4863 0.5235 1.5332 0.0537 0.1353 -1.3163 1.3885 2.7547 -1.3339 -5.2896 2.6439 -2.2390 -4.2966 1.9076 -0.1491 -5.3171 1.6822 -2.0488 -3.2193 -0.5501 0.6850 -2.8166 -0.2793 1.1437 4.3562 -0.9974 -1.1009 3.5075 0.6063 -0.8898 0.0922 0.0764 1.0057 -4.0380 -2.1628 -3.1925 4.1278 -0.9891 -0.8284 2.0233 1.3329 0.4333 0.2310 -0.0849 -0.4796 -2.3079 0.9977 0.0151 -4.3448 0.8939 -0.9659 -3.2541
0.0668 -0.5508 6.6522 -0.5137 1.7625 6.0547 -4.1705 -3.7371 4.2119 -1.9715 -3.2660 5.6662 -1.9966 -0.1178 1.4107 2.3653 1.1100 0.4822 0.3794 3.7181 -2.6287 1.0895 3.3269 -3.9022 1.3009 3.4661 -1.4582 0.1245 3.1009 -5.0434 0.5080 3.2152 -0.1939 -0.7456 1.8610 -4.9686 -0.2167 0.0716 4.2840 -0.8415 -2.3015 3.7960 -0.2672 -0.9952 -0.8978 -3.0025 -3.2666 3.5788 0.2185 1.8096 -0.0337 0.1940 -0.8942 1.5255 2.8311 -1.0634 -5.2818 2.9714 -1.8146 -4.1712 1.7477 -0.0972 -5.3956 2.0422 -1.6807 -3.0564 -0.7582 0.5054 -2.8683 -0.7131 0.3121 5.6898 -1.1511 -0.8436 3.5240 0.6730 -0.5567 0.2054 -0.2194 0.8165 -4.1291 -1.9988 -2.9722 4.4752 -1.0446 -0.5665 2.0442 1.1911 0.8647 0.2116 -0.0170 -0.4406 -2.2420 0.8847 0.0225 -4.3759 1.0401 -0.7984 -3.1656
-2.9204 0.9458 4.9450 -1.0872 2.5255 4.5253 -2.8203 -4.4664 5.4245 -0.8427 -4.5136 3.6173 -1.5823 -1.0519 1.2764 2.0005 1.9139 1.1344 0.7484 4.4942 -2.0421 1.2286 4.3575 -3.4703 -0.2902 3.4819 -1.6240 0.7926 3.0974 -4.1795 -0.1794 3.2031 -0.1435 1.9654 2.1571 -4.3582 -0.6605 0.1173 4.3480 -0.1634 -2.2907 4.1692 0.6609 -0.9748 -0.6590 -1.9043 -3.3968 5.3597 -0.0467 1.7828 0.0681 0.6573 -0.7694 1.8204 0.0078 -1.7343 -5.8744 -0.3052 -2.5732 -4.8668 0.6980 -0.4782 -5.6119 -0.0008 -2.2235 -3.4863 1.6798 0.6883 -2.3453 -1.6856 1.2019 4.1172 -0.9609 -1.1486 3.5767 1.1713 -0.2527 0.5734 1.6746 0.8843 -3.7391 -1.0125 -3.5204 4.3176 -0.6757 -0.9846 2.1031 1.1025 1.2549 0.6136 1.0650 -0.4694 -1.9949 1.0322 -0.1789 -4.3477 0.6530 -1.0785 -3.2473
-2.0195 1.3440 5.6469 -4.0662 1.4014 4.2864 -0.7028 -4.5973 5.6658 -0.6468 -2.0437 6.4668 -1.7084 -2.4988 1.4388 2.6416 -0.3676 -0.0112 2.2812 3.9525 -1.9892 1.2799 4.2786 -3.0705 1.5571 3.6758 -0.6930 1.4539 3.3162 -4.2216 2.1468 2.4489 -0.0392 0.1197 2.7180 -4.6138 -2.0361 0.3143 3.4071 -0.2785 -1.2601 4.2394 -0.7528 -0.6513 -1.0289 -0.4465 -3.5791 4.7267 1.1535 1.4071 0.0288 -0.2767 -0.6724 1.3606 1.5260 -1.5005 -5.8264 1.3491 -2.4005 -4.8384 1.0888 -0.1214 -5.6629 0.7120 -2.0186 -3.5835 -0.5322 1.2034 -2.7245 -2.8542 0.5785 4.6485 -1.5147 -1.1066 3.3767 0.3008 -0.8694 0.0461 -0.0286 1.4125 -4.0201 -0.5000 -2.3187 5.2801 -1.1884 -1.5156 1.9593 1.4928 0.0700 0.0228 -0.3390 -0.0777 -2.3244 0.4905 0.2306 -4.5152 0.2977 -0.7527 -3.4380
-0.5427 -0.0920 6.6834 -1.9906 1.7265 5.8732 -3.1044 -4.1200 5.2136 -1.1630 -4.2720 3.3570 -1.7629 -0.7065 1.1833 1.6037 2.3012 0.9930 0.8491 4.1016 -2.3515 0.9847 4.2447 -3.8513 -0.5314 3.6144 -1.9725 0.8243 2.9210 -4.5637 -0.6196 3.3173 -0.4928 2.0994 2.1043 -4.5120 -0.7660 0.3191 4.2594 -0.3314 -2.1213 3.9790 0.6123 -0.7876 -0.7244 -2.0144 -3.2264 5.2513 -0.3241 1.9286 -0.2368 0.4885 -0.4807 1.7200 0.4153 -1.9655 -5.8881 -0.0059 -2.7113 -4.8473 1.0839 -0.6887 -5.6708 0.1891 -2.2528 -3.4792 1.7365 0.7665 -2.4365 -1.4872 0.3345 5.5858 -1.1086 -0.9255 3.4695 1.0150 0.0385 0.4789 1.8587 0.8498 -3.8355 -1.2256 -3.3176 4.1261 -0.8472 -0.6909 2.0022 0.8178 1.5398 0.4315 1.1167 -0.3759 -2.0532 1.3007 -0.2804 -4.4113 0.8292 -1.0926 -3.2805
-4.0052 -0.6843 5.1297 -3.9133 1.5155 4.0309 -0.0570 -4.0187 6.5258 0.8245 -3.5747 4.0286 -1.7730 -2.2592 1.5677 2.1439 -0.2700 0.3564 3.0783 2.9844 -2.3021 2.7314 3.7263 -3.5706 2.2333 3.5063 -1.1636 2.2306 2.7594 -4.6155 2.2902 2.5513 0.0056 0.7206 2.8106 -4.7168 -1.8855 0.1248 4.1257 0.1589 -1.2807 4.1373 -1.2340 0.2813 -0.8798 0.0355 -2.6994 6.0374 1.0838 1.7639 0.0634 -0.7655 -0.1777 1.4647 0.8572 -1.7455 -5.3897 0.3502 -2.4310 -4.3455 0.8318 -0.2903 -5.4065 -0.2293 -1.7330 -3.2045 -0.4662 1.7890 -2.7597 -3.3902 0.1009 3.9978 -1.2559 -1.1537 3.6210 -0.2376 -0.2720 0.1238 0.1328 1.6875 -4.0279 0.3659 -2.6557 4.7008 -1.2907 -1.2712 2.1168 1.1233 0.3918 0.1737 -0.7096 0.5626 -2.2335 0.2838 0.3553 -4.3660 -0.2630 -0.3939 -3.2256
0.5477 -1.4321 6.5669 0.8256 0.9592 6.0468 -4.8100 -2.6233 4.4288 -2.4376 -2.9182 5.6353 -1.8457 0.0572 1.5838 2.2106 1.2125 0.5712 0.6222 3.7636 -2.5588 -0.1768 3.8741 -3.8343 -0.3040 3.8729 -1.3690 0.4743 3.0367 -4.9101 0.3405 3.2563 -0.1483 -0.3675 1.8131 -5.2100 0.3706 -0.6525 4.2345 -1.2490 -2.4560 3.6169 -0.3577 -0.8980 -1.0025 -3.6256 -2.4678 3.6804 0.0945 1.8355 -0.1227 0.2258 -0.9793 1.3954 3.1337 -1.1880 -5.0648 3.1480 -1.8969 -3.9181 2.0710 -0.2275 -5.3266 2.1053 -1.7235 -2.9155 -0.6677 0.4965 -3.0901 0.0880 -0.3033 5.6769 -0.9187 -0.9841 3.5194 0.6261 -0.5190 0.0861 -0.0241 0.7296 -4.3193 -2.4894 -2.6348 4.4428 -0.9040 -0.5638 2.0715 1.0818 0.9236 0.1783 -0.0082 -0.4383 -2.3628 1.0971 -0.0765 -4.4162 1.1232 -0.8479 -3.1659
-1.9212 1.7468 5.4861 -0.1233 2.4804 3.9653 -3.7773 -4.2128 3.2671 -2.2319 -3.4128 5.2966 -1.4243 -0.3847 1.1432 3.0592 1.1554 0.1508 0.4457 4.0691 -1.8824 -0.6555 3.8065 -2.8791 -0.0508 3.7961 -0.4829 -0.1030 3.0109 -4.0383 1.0709 3.1959 0.3292 -0.8659 1.7122 -4.1838 -0.4679 0.0736 4.3970 -0.6825 -2.3490 3.8236 0.8093 -1.3075 -0.5296 -2.5884 -3.5061 2.9960 0.8580 1.7800 0.4906 0.7622 -0.7347 1.8606 1.8499 -1.6760 -5.7360 2.3126 -2.4601 -4.7419 0.9840 -0.5411 -5.4483 1.9661 -2.1861 -3.3533 -0.1814 0.3836 -2.1611 -1.1527 1.4106 4.2337 -1.0487 -0.9350 3.4325 1.4702 -0.5663 0.6132 -0.1430 0.6436 -3.5427 -1.9230 -3.1309 4.1429 -0.6073 -0.6588 2.0186 1.8949 0.8749 0.4307 0.6325 -0.6507 -1.8366 0.6593 -0.2884 -4.1718 1.1733 -1.1386 -3.0897
0.3797 -2.9095 6.1359 0.9374 -0.6364 6.8719 -4.4217 -2.0485 3.0144 -2.5193 -3.4438 4.2897 1.3821 -0.4114 1.8837 -1.4605 2.9061 0.7499 1.5266 4.3081 -3.4438 0.5796 3.2419 -3.9357 1.5802 4.4667 -1.9389 1.2776 2.3182 -4.9083 0.2883 4.1925 -1.1996 0.3732 1.1844 -5.3562 0.7115 -1.1200 4.4715 -0.7969 -2.4219 2.9877 -1.3803 0.0559 -0.8662 -3.0991 -2.0393 2.5274 0.2312 2.7950 -0.8378 -0.7815 0.3112 1.4805 2.8598 -2.0926 -3.3058 2.3991 -2.3726 -2.0704 2.1405 -1.1758 -4.1798 1.1681 -1.7666 -1.5816 -0.8944 0.5663 -3.2970 0.1758 -1.4411 5.8460 -0.3764 -1.0299 3.4189 -0.4999 0.7646 0.1445 0.0907 0.2780 -4.2646 -2.2234 -2.6828 3.3739 0.1963 -0.3520 2.1975 -0.6454 2.2701 0.0900 -0.6823 -0.1307 -2.1561 0.9889 -0.6417 -3.7458 0.4945 -0.9426 -2.3957
-4.2832 -1.3196 4.9363 -4.2924 0.6968 3.5153 0.5381 -4.3405 5.7565 1.7925 -2.8586 3.9085 -1.1812 -2.1776 1.3452 0.1282 2.6457 1.0417 3.2354 2.3405 -2.6373 3.0302 3.1632 -3.8873 2.6185 3.0750 -1.4692 2.2747 2.3751 -4.9287 2.7528 2.2773 -0.1941 0.7800 2.5891 -4.8013 -2.1493 -0.3017 4.2016 0.2006 -1.0907 4.1264 -1.4714 0.6515 -0.7626 0.1387 -3.0065 5.5398 1.6850 1.3182 -0.0757 -1.0833 0.1245 1.5815 0.8482 -2.0208 -4.7727 0.2510 -2.5356 -3.6795 0.8814 -0.5834 -4.9922 -0.3800 -1.6670 -2.6937 -0.5039 1.8912 -2.7585 -3.5786 -0.5978 3.8157 -1.1867 -1.2710 3.5537 -0.4439 0.4021 0.3258 0.1891 1.5896 -3.9459 0.7982 -2.4223 4.4807 -1.1469 -1.1713 2.0506 0.4640 1.5936 0.5107 -0.8472 0.7566 -2.0985 0.3003 0.2187 -4.0880 -0.3589 -0.3442 -2.9046
-2.7280 0.5513 6.1347 -4.6931 -0.1751 4.8443 1.1268 -3.8977 5.3829 0.0799 -1.5494 6.1329 -1.7353 -2.5222 1.4455 1.8000 -0.2663 0.3367 2.0425 3.6243 -2.1200 2.8177 3.6933 -3.4148 2.5993 2.5779 -1.1830 2.4280 2.6167 -4.4007 1.8417 2.6055 0.1298 0.9710 2.6826 -4.8133 -2.4856 -0.0406 3.7526 -0.1190 -0.8274 3.8611 -1.4225 0.2170 -1.2149 0.8948 -2.8973 4.4178 0.6820 1.7462 0.0828 -1.2564 -0.2755 1.1549 1.3929 -1.8691 -5.2731 0.8167 -2.5330 -4.2515 1.2559 -0.4252 -5.3931 0.0340 -1.8236 -3.2477 -0.5050 1.6858 -3.0573 -3.2093 -0.3659 5.0368 -1.5208 -1.1466 3.3898 -0.5510 -0.3370 -0.1027 0.2486 1.5675 -4.2416 0.2701 -1.7886 4.9452 -1.5158 -1.4037 1.9039 0.7714 0.3707 0.1163 -0.7418 0.4724 -2.5014 0.5213 0.2303 -4.4810 -0.1107 -0.4975 -3.3721
-1.2091 0.2232 6.4360 1.2234 -0.0187 6.7055 -4.2993 -3.2575 3.1720 -2.3934 -2.5792 1.4139 1.7145 -0.4426 2.9587 -1.7063 1.1488 -0.2813 -0.4921 3.6814 -3.3796 0.5155 4.0692 -4.4361 -0.2958 4.4927 -2.1206 1.3488 2.9175 -4.9646 -1.0608 3.8529 -0.9837 0.6759 1.5622 -4.8995 0.0539 -1.3512 5.0047 -0.7043 -2.6806 3.1027 1.6725 0.4557 -0.1465 -2.9440 -3.3100 3.5558 -0.2146 2.9269 -0.2715 -0.0442 -0.2312 1.4652 0.7630 -2.9629 -4.1745 0.9485 -3.2629 -2.8734 0.8220 -1.5830 -4.6373 1.2033 -2.2136 -1.8947 1.4469 1.2697 -2.5296 0.0900 -0.0154 5.7075 -0.4724 -1.2615 3.5846 0.4862 0.8700 0.7080 1.2280 0.7616 -3.8257 -2.1027 -2.8219 2.5805 0.5338 -0.6068 2.6650 -0.6251 1.6409 0.0274 1.4684 0.2895 -1.5981 1.0955 -0.6167 -3.7473 1.2740 -0.9467 -2.3237
-4.0287 -1.1212 4.8032 -3.8008 1.0583 3.6757 -0.3233 -2.9817 7.3082 0.7576 -0.9754 5.9109 -1.7460 -2.6040 1.1627 2.2891 -0.2696 0.2130 2.8551 3.7210 -1.9469 2.5596 2.6896 -3.0090 1.7999 3.6887 -0.8643 2.0271 3.3399 -4.2654 2.0713 2.5730 0.1187 0.6085 2.9650 -4.6552 -1.8427 -0.4197 3.8740 0.1485 -1.9729 3.8293 -1.1005 -0.0209 -1.0311 -0.2619 -3.0688 5.9025 0.9778 1.6357 0.1075 -0.6362 -0.5736 1.2887 1.0844 -1.4955 -5.7054 0.6722 -2.3001 -4.7054 0.9283 -0.0510 -5.6119 0.0557 -1.7467 -3.5066 -0.4538 1.6952 -2.7731 -3.3405 -0.3781 3.6851 -1.2536 -1.7030 3.3243 -0.0741 -0.5448 -0.0408 0.1304 1.7462 -4.0523 0.2418 -1.9239 5.3273 -1.2365 -1.6970 1.8155 1.1929 0.2742 0.0925 -0.5827 0.4155 -2.3444 0.3678 0.4629 -4.5072 -0.0868 -0.4175 -3.4203
-3.9665 -1.2533 5.4363 -4.4604 0.1076 3.4408 0.8637 -4.1596 5.7376 1.8343 -2.7316 3.6978 -1.1202 -2.0873 1.2489 -0.7261 2.9118 0.7999 2.6168 3.6495 -2.3248 3.5229 3.0614 -3.3810 3.1532 3.3953 -0.9349 2.9865 1.7575 -3.9304 2.0172 3.4474 0.0629 1.6651 1.9290 -4.6546 -2.1242 -0.2791 4.1102 0.2606 -0.9704 4.0534 -1.3066 0.4429 -0.9155 0.3526 -2.8699 5.4881 1.3641 2.1627 0.1136 -1.0806 0.2120 1.4925 0.1515 -2.3986 -5.2063 -0.5997 -2.8076 -4.1643 0.6627 -1.0356 -5.2679 -0.9219 -1.8964 -3.0739 0.0618 1.5059 -2.7796 -3.5035 -0.8879 4.0483 -1.1117 -1.1933 3.4632 -0.3779 0.5705 0.2837 0.6492 1.1366 -4.0024 0.9039 -2.2912 4.3658 -1.0901 -1.0842 1.9588 0.0382 2.0130 0.4647 -0.5998 0.4679 -2.2139 0.3507 -0.1866 -4.2772 -0.4659 -0.6383 -3.1398
-3.4879 0.1436 4.0787 -2.0412 1.1681 5.7854 -2.8841 -4.6220 2.5765 -0.4711 -4.0675 1.5457 1.1177 0.5027 3.5911 -0.1799 2.3092 0.4653 0.4822 4.0144 -2.8884 0.7097 3.6577 -4.3400 1.8111 4.2127 -2.1955 -0.1670 2.4854 -4.7219 1.6406 4.1982 -0.6919 0.6843 1.2510 -4.9387 -1.2239 -0.7632 4.5041 0.0030 -2.5066 3.2907 2.3068 -0.0383 -0.3684 -1.9751 -3.8301 3.3057 1.9759 2.9038 -0.1472 0.6134 -0.0988 1.4057 -1.4277 -2.5261 -3.3126 -0.9322 -2.9165 -2.1213 -0.9252 -1.3274 -3.9732 0.0957 -2.1307 -1.4500 1.7179 0.7754 -2.6991 -2.0641 0.4895 4.4372 -0.6141 -1.1279 3.1645 1.6193 0.7131 0.7645 0.7894 0.4923 -3.7165 -0.8364 -3.5347 2.5885 0.4720 -0.1527 2.7787 1.0162 2.0495 0.3642 1.5811 -0.0821 -1.6580 0.0426 -0.6190 -3.3717 0.5509 -1.0232 -2.0518
-3.6888 0.5298 4.5454 -2.3739 2.4092 3.6424 -1.4150 -5.2264 4.7112 -0.6208 -3.1802 6.2446 -1.7398 -1.7734 1.4038 2.3154 1.0971 1.4265 0.1673 3.3481 -3.1024 1.3880 3.9155 -3.7907 0.0934 3.7926 -1.6608 2.6177 3.0709 -3.5402 -0.1574 2.5960 -0.7719 2.6428 1.8172 -4.3938 -1.2549 0.2680 4.1319 -0.0040 -1.8777 4.3393 0.9743 -0.9220 -0.5516 -0.8005 -4.1068 4.1159 0.9958 2.3805 0.0707 0.2407 -0.6198 1.7183 -0.8077 -0.9725 -5.6036 -1.3004 -1.6602 -4.5538 0.3366 -0.0862 -5.4426 -0.7003 -1.5350 -3.2313 2.1313 0.4303 -2.3556 -2.5355 0.9099 3.6503 -1.1272 -1.1526 3.6307 0.3641 0.0560 0.4436 1.9798 0.7229 -3.7237 -0.5275 -3.1068 5.0234 -0.9297 -1.2106 2.1355 1.3069 1.2134 0.7300 1.1588 -0.4067 -1.9216 0.9075 0.0123 -4.2325 0.3633 -0.7328 -3.0875
-2.2252 0.4635 5.8998 -3.9061 1.0963 4.2187 -0.9991 -5.2564 4.4111 -1.1451 -3.0540 5.9206 -1.0690 -1.7451 0.8454 1.7641 2.3193 1.1254 1.2135 4.0618 -2.8720 1.4934 3.6336 -4.2904 -0.0815 3.4493 -2.3971 2.7556 2.8047 -4.3201 -0.0580 3.3401 -0.8916 2.4789 1.4195 -4.8635 -1.7151 0.2074 3.5017 -0.2297 -1.6919 4.1907 1.8042 -0.8143 -0.4295 -0.6053 -4.0162 3.8719 0.1638 1.9676 -0.5213 0.6484 -0.4911 1.7602 -1.5098 -0.8667 -4.6541 -1.6842 -1.4951 -3.4744 -0.3019 -0.0960 -4.9147 -0.6709 -1.4147 -2.4297 2.4377 0.3149 -2.5972 -2.8010 0.1258 4.5473 -1.2024 -1.1709 3.1562 1.0871 0.0843 0.5398 1.8725 0.5826 -3.8581 -0.7309 -2.9804 4.7700 -0.5543 -1.1659 1.7978 1.0802 1.5772 0.4333 1.6058 -0.4436 -1.8435 0.6387 -0.0317 -3.9604 0.4454 -0.7141 -2.6726
0.8506 0.0355 6.0652 2.5526 -1.6356 5.4546 -4.5389 -0.3899 5.0641 -3.8884 -1.5533 2.7385 0.8506 -2.5242 2.0680 1.2217 1.6619 0.7795 -0.8969 4.3589 -2.6981 -1.0259 3.7271 -4.0692 -0.0970 3.5163 -1.7310 0.2744 3.1443 -4.5784 -0.9032 3.1670 -0.4991 0.0259 1.7909 -5.2133 0.2137 -1.9697 4.7663 -1.9105 -2.5087 3.6810 -0.4833 -0.9756 -1.0609 -3.4870 -1.3280 5.0181 -0.8475 1.7427 -0.2631 -0.5537 -0.8089 1.3818 3.6927 -0.9003 -4.4310 3.5502 -1.6487 -3.3186 2.6285 -0.0066 -4.8664 2.3346 -1.5752 -2.5193 -0.5425 0.3985 -3.1931 1.2911 -0.9407 5.0036 -0.7188 -1.5727 3.6386 0.1683 -0.4103 0.1930 0.3033 0.7348 -4.2680 -3.1929 -1.7296 3.7339 -0.0383 -1.7092 2.2947 0.2609 1.1025 0.2542 0.0585 -0.4740 -2.3457 1.4955 0.0440 -4.1506 1.3516 -0.7633 -2.9293
-1.3354 0.4507 6.4687 1.0714 0.1656 6.8963 -4.3572 -2.6608 3.0413 -2.1988 -3.0092 1.4984 1.7618 -0.4066 3.2168 -0.9526 2.5769 0.7199 -1.3149 3.0802 -3.5900 -0.4664 3.0638 -4.8380 -1.6393 1.6642 -3.1799 0.9487 3.4503 -4.4777 -2.0457 1.6393 -1.7268 1.8985 2.2866 -4.6558 -0.0287 -1.2205 5.1983 -0.7142 -2.6232 3.3277 1.8479 0.3731 0.0019 -3.0767 -2.6884 3.6301 -1.0266 0.9832 -0.9481 0.0947 -0.2676 1.6115 1.0489 -2.2300 -4.5829 1.0685 -2.7413 -3.3356 1.2853 -0.8108 -4.8097 1.3307 -1.8877 -2.1838 1.9584 1.6178 -2.2204 -0.0011 0.1477 5.8339 -0.4671 -1.1866 3.7474 0.6391 0.7988 0.8136 1.7612 1.3300 -3.5858 -2.0681 -2.7737 2.6961 0.6000 -0.5810 2.8602 -0.5050 1.5633 0.1854 1.8093 0.5004 -1.4666 1.5215 -0.0215 -3.7513 1.5518 -0.5831 -2.3954
-3.9867 -0.1231 3.0946 -2.7215 1.9679 2.8165 -1.6836 -4.6819 5.9438 0.2969 -4.2077 4.1912 -0.7955 -2.1065 0.9846 2.2481 1.9966 1.2673 1.5321 4.0406 -2.4997 1.6525 3.8112 -3.9857 0.2649 3.3991 -1.9907 2.7443 2.7982 -4.2357 0.3723 3.2008 -0.5002 2.1803 1.5036 -4.7771 -1.5630 -0.0337 3.6276 -0.0632 -1.8513 4.3292 1.5585 -1.1069 -0.4998 -1.2637 -3.3594 5.7011 0.4795 1.7974 -0.2087 0.7807 -0.6463 1.8661 -2.0314 -0.2778 -4.3423 -2.1760 -1.0012 -3.2141 -0.7677 0.3784 -4.6500 -1.0689 -1.1517 -2.2798 2.1907 0.2479 -2.5781 -2.6513 0.4638 2.7072 -1.0331 -1.4013 3.2561 1.4748 -0.1901 0.6978 1.5477 0.7258 -3.7396 -0.3213 -3.2785 4.7005 -0.3602 -1.4151 1.9018 1.4763 1.3097 0.6027 1.3414 -0.5024 -1.8308 0.2517 0.2463 -3.7882 0.0941 -0.5523 -2.5677
-1.4020 1.0791 6.2442 0.7628 0.1483 6.9596 -4.1490 -0.8777 1.2017 -3.9142 -2.2429 3.4941 1.6194 -1.0177 3.4917 2.6656 1.3078 0.0600 -0.2189 3.5772 -2.4193 -1.3078 3.3003 -3.4259 -0.7489 3.3449 -1.0255 -0.7830 2.3681 -4.4908 0.4035 3.0386 -0.1013 -1.3267 0.9704 -4.2824 -0.5592 -1.0330 5.2541 -1.5294 -2.2615 3.3502 1.0055 -1.4644 -0.5402 -2.8752 -1.2800 1.6473 0.3855 1.6434 0.2528 0.2583 -0.6935 1.6407 2.6565 -0.9496 -5.5883 3.2860 -1.5683 -4.5693 1.3677 -0.3043 -5.3833 2.6930 -1.6066 -3.2381 -0.4259 -0.2054 -2.2496 -0.1759 0.3258 5.7916 -0.7886 -1.0030 3.7580 1.3017 -0.5672 0.6514 -0.3511 0.1491 -3.6105 -2.9104 -1.9187 2.8673 0.5083 -0.9242 2.9800 1.5426 0.8990 0.3506 0.6862 -0.8783 -1.8597 0.8172 -0.3430 -4.1606 1.5065 -1.0126 -3.0503
-4.3962 -1.6368 3.9911 -4.4368 0.3569 2.5574 -0.2322 -3.2861 7.2579 1.3000 -2.7318 5.1079 -0.6173 -2.7240 1.7880 2.3421 0.8571 1.1275 2.8253 3.8334 -1.8385 2.9684 3.8842 -3.3468 1.3882 3.8132 -1.3622 1.9753 3.0272 -4.1044 1.3146 3.2734 0.0513 2.5216 1.6406 -4.3881 -2.3378 -0.3068 3.6536 -0.0831 -0.8762 4.5181 -0.3286 -0.5458 -0.9036 -0.4355 -2.0979 6.5281 0.6211 2.0052 0.0878 -0.4141 -0.4288 1.5350 -1.1035 -0.6486 -6.1343 -1.8380 -1.2456 -5.1743 0.1342 0.0513 -5.8091 -1.4137 -1.1909 -3.7827 1.4685 0.4112 -2.4791 -3.6010 -0.8189 3.0035 -1.2199 -1.3228 3.6225 0.4594 -0.4105 0.3854 1.6226 0.6357 -3.8609 0.3487 -2.0139 5.3987 -0.7139 -1.5808 2.2264 1.2491 0.8694 0.5625 0.3512 -0.3059 -2.1996 0.5474 0.0758 -4.5325 -0.2662 -0.5628 -3.4864
-2.1451 -4.5205 3.8816 -3.2849 -3.8959 1.7872 -0.1709 -0.8134 7.6742 -2.4041 -0.1856 6.3371 1.0023 -1.7555 2.3451 -0.1013 2.0549 1.0437 2.8138 3.7512 -2.5035 2.3083 3.4587 -3.8997 1.7895 3.4676 -1.4288 0.8492 3.8068 -4.0925 2.3813 2.6104 -0.3358 0.1372 2.7259 -4.8800 -2.3477 -2.1355 3.2334 -1.2425 -0.1422 4.2507 -1.0776 -0.1993 -0.9843 -0.0960 -0.4894 6.3044 1.6856 1.3485 -0.2632 -0.7511 -0.5940 1.3649 1.8183 -1.5420 -5.2788 1.4959 -2.3241 -4.2292 1.3529 -0.1635 -5.3524 0.6780 -1.8087 -3.1390 -0.7072 1.4581 -2.8680 -2.1596 -3.5475 2.7293 -1.0267 -1.4841 3.5843 -0.0682 -0.2020 0.1532 -0.0167 1.5256 -4.0935 -1.3374 -0.2952 5.7405 -0.1393 -1.3033 2.3763 0.4858 1.1872 0.4050 -0.5544 0.2399 -2.2927 0.5877 0.3100 -4.3576 0.2451 -0.5430 -3.2118
0.5143 -0.1595 6.4289 2.1700 -1.9065 5.9016 -4.5473 0.3684 3.0133 -3.9147 -1.5092 4.8114 0.8350 -2.6032 2.2896 1.5719 1.7867 0.4913 -0.9446 3.2800 -2.8130 0.0151 3.1701 -3.9736 -0.1546 3.5233 -1.5489 -0.6460 2.5409 -5.1773 -0.9109 3.0301 -0.3358 -0.7674 1.0290 -5.1893 -0.0896 -2.0380 4.9306 -2.0875 -2.2901 3.4859 0.0560 -1.1765 -0.7773 -3.5360 -0.5674 2.7159 -0.6674 1.6276 -0.0913 -0.2251 -0.6651 1.5727 3.6616 -0.1773 -4.6219 3.8858 -0.7414 -3.4183 2.3252 0.2575 -5.0045 2.7943 -0.9456 -2.4749 -0.6262 -0.0937 -2.9550 1.0142 -1.1009 5.3617 -0.8016 -1.5201 3.7007 0.5867 -0.3905 0.4090 -0.0347 0.3578 -4.1481 -3.2686 -1.4094 3.7731 0.0474 -1.6802 2.4650 0.5620 1.1193 0.2756 0.3024 -0.6272 -2.1241 1.3175 0.0711 -4.1391 1.5628 -0.5599 -2.8340
-4.1425 -1.5171 4.0599 -4.3664 -3.4770 2.6055 0.9551 -1.4531 6.9103 -1.5892 -0.9232 6.2612 1.0754 -2.3841 2.0749 -0.7870 1.8157 0.1539 2.7575 4.5155 -2.4053 1.6764 3.9162 -3.2719 2.6588 4.2010 -0.9276 2.3100 3.1398 -4.4048 1.3182 3.6915 -0.4499 1.3709 2.0778 -4.9318 -2.3752 -2.0309 2.4123 -1.0085 -0.5959 3.9632 1.5510 -0.6074 -0.6644 0.5793 -1.3833 5.5539 1.4698 2.3401 0.0327 -0.1878 -0.7248 1.0652 -1.4695 -1.5129 -4.9927 -1.4287 -2.2321 -3.8532 -0.6177 -0.3452 -5.1675 -0.5488 -1.8470 -2.7576 1.7688 0.8417 -2.7419 -3.3822 -2.6254 3.3708 -1.0259 -1.8153 3.0641 0.8710 0.0825 0.5120 1.1753 0.9783 -4.0125 -0.7311 -0.9927 5.3866 0.0663 -1.6830 2.0286 0.3944 1.5006 0.2557 1.2079 -0.1692 -2.0348 0.2185 -0.0073 -4.1747 0.2361 -0.7738 -2.9201
-1.0386 -4.0248 5.3761 0.8795 -4.5696 3.9332 -2.6641 -0.1161 7.2594 -3.5512 -1.7079 5.3061 1.0938 0.2898 3.0851 -1.9089 1.0868 -0.1638 -0.0508 4.1968 -2.9529 1.2865 4.2626 -3.6480 0.1131 4.5582 -1.4954 1.3488 3.2007 -4.7205 -0.7846 3.6821 -0.6541 2.4745 2.2335 -4.4248 -0.6041 -2.6911 3.3387 -2.0942 -0.7113 3.6981 0.5099 -0.7405 -0.8476 -2.1397 0.0258 5.9592 -0.0685 2.4992 -0.2489 -0.2822 -0.5153 1.4015 1.0636 -1.8712 -5.9862 0.5683 -2.6510 -5.0044 1.5868 -0.5435 -5.6921 0.5289 -2.1777 -3.6278 1.6676 0.9610 -2.4092 0.0309 -3.4491 4.4804 -0.6685 -1.2172 3.6682 0.3081 0.2230 0.3070 1.9592 1.0496 -3.7842 -2.6783 -0.8783 5.0706 0.1534 -0.4018 2.7035 -0.7058 1.2929 -0.0384 1.0862 -0.2263 -2.1074 1.5680 -0.1119 -4.4222 1.0125 -0.9573 -3.3593
-3.6516 1.0484 4.7384 -4.9197 -1.0018 4.2375 1.6164 -1.4931 6.2991 -0.3569 0.2900 5.9444 -0.7124 -3.1390 2.1246 2.0216 -1.6049 -0.6383 2.7778 2.2489 -1.7713 2.4087 3.4503 -2.6121 2.3030 2.3846 -0.3420 0.9265 3.7439 -2.5429 2.3747 1.0403 0.3404 0.1648 3.1788 -3.7222 -2.7951 -0.5530 3.0805 -0.3910 -0.1152 3.5885 -1.1814 -1.1262 -1.4896 1.2291 -1.1270 4.9942 1.1191 0.3410 0.2282 -1.0638 -1.1919 0.9146 1.4988 -0.5401 -6.0565 1.2089 -1.6853 -5.4075 1.0975 0.7486 -5.5101 0.4579 -1.6675 -4.1602 -0.7405 1.2013 -2.4332 -3.5377 -0.4149 4.3857 -1.4314 -1.1744 3.2906 -0.3450 -1.5337 -0.2891 -0.0923 1.7703 -3.5488 0.1312 -0.2949 4.9830 -1.0220 -1.9523 2.0639 1.0612 -0.9681 -0.2071 -0.6392 -0.1506 -2.4537 0.4108 0.7694 -4.3582 0.0717 -0.4821 -3.6707
-3.3656 -3.9359 3.9006 -4.1873 -3.0779 1.7381 1.2655 -0.6942 6.7942 -1.3247 -0.0311 6.6384 0.4284 -2.2370 2.3403 0.4661 1.8070 0.9532 2.2052 3.5719 -1.8107 2.0716 4.0645 -3.2327 2.9700 2.2697 -1.8067 0.6250 4.0156 -3.6638 2.9654 1.6530 -0.4288 0.3783 2.8658 -4.6191 -2.8597 -1.6103 3.2133 -1.2627 -0.0051 4.2511 -1.1422 -0.2066 -0.9525 0.6928 -0.4114 5.5384 1.9698 0.6135 -0.3495 -0.8450 -0.5396 1.4008 1.5764 -1.5192 -5.3643 1.1279 -2.3499 -4.4019 1.2888 -0.0914 -5.3122 0.3644 -1.8368 -3.2725 -0.6064 1.5374 -2.7052 -3.0574 -3.0300 2.7355 -1.4151 -1.3556 3.5856 -0.1216 -0.4095 0.1577 0.1112 1.6349 -3.9133 -0.6611 -0.1678 5.6156 -0.5036 -1.4387 2.3858 0.7861 0.7921 0.3412 -0.6061 0.2647 -2.2421 0.5665 0.3823 -4.2859 0.0992 -0.5244 -3.2285
-4.1765 -2.4064 2.5377 -3.9258 -0.7429 0.7342 -0.0105 -3.6579 6.5118 -1.4227 -1.3915 6.3684 0.5552 -2.6454 1.8029 2.2751 1.9250 1.7008 0.9378 4.0100 -2.6323 1.7853 4.2192 -3.8665 1.7774 3.9495 -1.3760 2.5068 2.9630 -4.3007 0.9029 3.6026 -0.1894 1.5639 1.9017 -4.8300 -2.3511 -0.7337 2.6308 -0.4552 -0.8086 4.2610 1.8417 -0.7229 -0.5489 0.1893 -2.7825 5.4257 0.7801 2.1711 -0.0486 0.0612 -0.4795 1.1544 -1.9458 -1.0312 -4.3325 -1.8793 -1.7305 -3.1819 -0.9243 -0.0478 -4.6672 -0.7865 -1.5179 -2.2418 1.9845 0.6686 -2.6560 -3.1884 -1.6070 1.7258 -1.0922 -1.4537 3.0523 1.3591 -0.0512 0.7211 1.2261 0.9324 -3.8135 -0.6446 -1.6860 5.4663 -0.0726 -1.5983 1.9510 1.5264 1.4448 0.8519 1.3551 -0.2162 -1.8463 0.0918 0.1405 -3.8119 0.1557 -0.6174 -2.5526
-4.0836 -2.4116 2.5109 -3.9685 -0.6726 0.7704 -1.2352 -2.6368 7.3035 0.8073 -1.6099 5.9121 0.3265 -2.7232 2.1490 3.3297 0.7695 0.7619 1.7398 4.0559 -1.9197 0.7945 4.5389 -2.9942 1.0762 4.0582 -0.5630 0.3066 3.4357 -3.9089 1.8835 3.2067 0.3907 1.3845 2.4467 -4.3033 -2.4009 -0.5981 2.6645 -0.6677 -0.4579 4.4281 0.8632 -1.0859 -0.7325 -1.4907 -1.7040 6.2783 1.3195 1.8817 0.4656 0.2594 -0.4826 1.5515 -0.9223 -1.2884 -5.7220 -1.0757 -2.1972 -4.7382 -0.1901 -0.0518 -5.4860 -0.5139 -1.9649 -3.4140 1.3914 0.8422 -2.3714 -3.1598 -1.5101 1.7301 -1.2076 -1.2891 3.2864 1.3381 -0.5368 0.5984 1.0991 1.1643 -3.7079 -0.3481 -1.3347 5.6035 -0.1229 -1.5873 2.2825 2.1043 0.7639 0.6567 0.8448 -0.3422 -2.0077 0.3466 0.1548 -4.2743 0.1721 -0.8334 -3.2009
-0.3454 -4.7873 4.0709 -0.6740 -4.7254 1.6275 -1.1213 0.5995 7.2792 -2.8073 -1.1963 6.2185 1.0536 -0.5519 2.7999 -1.6748 1.9425 0.6880 0.7083 4.3931 -2.3858 1.7250 4.5188 -3.4977 1.3720 4.3487 -1.0276 2.3202 3.1826 -3.8864 0.3988 3.8124 -0.0007 1.3425 2.3448 -4.6854 -1.5148 -2.8735 3.0216 -2.1060 -0.6616 3.9975 -0.6630 -0.4741 -1.0379 -1.2289 0.4848 5.8790 0.5271 2.3795 0.0946 -0.7714 -0.5897 1.3677 1.5393 -2.1807 -5.5960 1.0085 -2.9250 -4.6053 1.6067 -0.7296 -5.4866 0.4940 -2.2990 -3.3947 0.3178 1.1766 -2.7164 -0.4129 -3.8936 2.8582 -0.9751 -1.5666 3.5600 -0.1432 0.1063 0.2688 0.9994 1.1576 -3.9432 -2.0913 -0.5169 5.4903 -0.1107 -0.8530 2.5492 -0.5405 1.5628 0.4143 0.0720 -0.0727 -2.2572 1.1380 -0.1483 -4.3722 0.5577 -0.9648 -3.2922
1.3150 -2.8715 5.5412 2.6621 -2.6048 3.4975 -4.2417 -2.1367 5.9040 -2.9357 -3.6466 4.1050 -0.0890 1.0025 3.2604 -1.8525 2.0165 0.9791 -0.9646 2.8968 -4.0280 0.2531 3.5181 -4.6718 -1.4242 3.7811 -2.8912 1.0556 2.4561 -5.3845 -2.0440 2.9883 -1.7611 2.3851 2.2342 -4.6941 0.2090 -2.4098 3.3732 -2.1493 -1.7075 2.9509 1.4438 1.0558 0.0861 -3.6482 -1.5328 4.7778 -1.0829 2.0690 -1.2069 -0.1601 -0.3357 1.3646 1.2680 -2.1982 -4.1314 1.0428 -2.5123 -2.8402 1.7164 -0.8644 -4.5079 1.2323 -1.5197 -1.7929 2.1384 1.8957 -2.2160 1.4260 -2.1400 4.2269 -0.7939 -1.2781 3.4751 0.0160 0.6297 0.3250 2.2210 1.3953 -3.5317 -2.9272 -2.4232 4.0144 -0.3162 -0.0689 2.7058 -1.0846 1.6380 0.1017 1.7990 0.9122 -1.3454 1.8951 0.0510 -3.5438 1.6360 -0.2902 -2.1420
-3.7941 -2.8907 4.6334 -5.2257 -1.1841 3.5767 2.2772 -1.9903 4.9048 0.3356 -0.7643 6.2850 -2.1324 0.6484 1.6890 2.1624 -1.0764 0.3209 3.4594 2.7914 -1.7567 2.9944 1.9346 -2.9104 2.3909 2.9092 -0.6926 2.4780 2.7608 -4.0692 2.4593 1.7620 0.2920 0.9701 2.9369 -4.1020 -2.8905 -0.6339 4.1551 -0.5757 0.1782 4.2873 -1.1811 -0.2377 -0.9170 1.4619 -1.0350 4.2656 1.2145 1.0333 0.2738 -0.7776 -1.2125 1.3265 0.4986 -1.2974 -5.8915 -0.0180 -2.1634 -4.9967 0.6304 0.1155 -5.5654 -0.4682 -1.7107 -3.6873 -0.2984 1.6028 -2.4138 -3.8193 -1.7250 3.6760 -1.5078 -0.7568 3.5459 -0.2090 -0.9123 0.0307 0.2431 1.7564 -3.7022 0.4316 -0.6060 5.0721 -1.5206 -0.3351 2.0955 1.1833 -0.3410 0.2040 -0.6386 0.3127 -2.1740 0.2186 0.5395 -4.3618 -0.3520 -0.4090 -3.3938
1.4793 -2.2671 5.6741 1.4445 -4.3738 4.4003 -2.8667 1.3046 5.9070 -3.1552 0.6928 3.3107 -0.4877 -2.9888 1.5136 1.5152 1.2928 0.6431 0.2671 4.4968 -2.5744 0.7784 3.6710 -3.7355 -0.7840 3.7706 -1.7643 -0.3466 3.1411 -4.5971 -0.2280 3.2945 -0.4423 0.0236 1.8250 -5.2493 -0.4990 -2.8691 4.3140 -2.4801 -1.5674 3.7011 -0.8263 -0.8594 -1.1077 -2.7688 -0.0377 5.4889 -0.5229 1.8910 -0.2787 -0.8018 -0.6985 1.3305 3.6221 -0.7713 -4.0825 3.3855 -1.5280 -2.9922 2.5824 0.0862 -4.6336 2.0866 -1.4995 -2.3330 -0.7450 0.4382 -3.2793 1.0067 -2.9290 4.4038 -0.9832 -1.6901 3.4932 -0.0416 -0.4536 0.1299 0.1947 0.7730 -4.2747 -2.8231 -0.1686 4.1189 -0.7205 -1.8945 2.0181 0.4133 0.9934 0.1875 -0.2211 -0.4447 -2.3930 1.3764 0.0928 -4.0461 1.1258 -0.7228 -2.8511
1.6211 -2.4321 5.5911 2.3955 -3.3291 3.4275 -3.8697 0.3074 6.1130 -3.5613 -2.2859 5.5178 -0.0650 0.7572 3.1230 -2.2330 0.1288 -0.4751 -0.9139 4.2661 -3.2438 0.1055 3.3537 -3.8882 -0.9887 4.0910 -1.7435 1.4925 3.6314 -3.3555 -1.7094 2.8156 -1.3775 2.4925 2.5908 -3.8108 0.0420 -2.6488 3.6892 -2.2855 -1.7747 3.5633 0.7357 -0.9103 -0.6341 -3.2458 -0.0627 4.9054 -0.8226 1.9665 -0.6261 -0.4815 -0.8002 1.4556 1.7856 -1.4882 -5.7958 1.3406 -2.4173 -4.9265 2.1228 -0.1438 -5.3449 1.1543 -2.0890 -3.5195 1.8357 1.0220 -1.9399 1.4659 -2.3462 4.0934 -0.8299 -1.4157 3.7636 0.0355 -0.0065 0.3665 2.1996 1.2816 -3.2766 -3.0830 -1.4253 4.7859 -0.4156 -0.3640 2.7628 -1.1587 0.6795 -0.2589 1.3760 -0.2461 -1.7929 1.9891 0.1496 -4.0426 1.4737 -0.8552 -3.1057
1.4478 -3.2449 4.9250 2.8886 -2.7616 2.9800 -4.5679 -1.3368 4.7020 -3.3666 -3.3516 3.4176 -0.1254 0.7074 3.6368 -1.6536 1.3462 -0.0596 -1.0588 3.4681 -3.4189 -0.3201 3.7281 -4.7132 -0.5721 4.3788 -2.3158 0.9095 2.8605 -4.8851 -1.2350 4.0091 -1.0072 0.6081 1.3853 -4.7169 0.4400 -2.5714 2.7629 -1.8985 -1.8604 2.2659 1.8457 1.2042 0.1058 -3.5658 -1.0544 3.7524 -0.3276 3.2426 -0.1891 0.1718 0.0335 1.4375 1.1308 -2.9133 -3.2335 1.4407 -2.9706 -1.9229 1.0415 -1.6347 -3.9264 1.6717 -1.7516 -1.1604 1.5009 1.5804 -2.3726 1.6149 -2.3884 3.6954 -0.6413 -1.5534 3.0491 0.5654 1.3171 0.9202 1.2779 0.8413 -3.5525 -3.0111 -2.1952 3.2143 -0.1786 -0.1483 2.7574 -0.6108 1.9445 0.1914 1.6909 0.7767 -1.3010 1.2930 -0.5105 -3.2387 1.5941 -0.5768 -1.7999
-3.8973 -1.0568 5.5325 -4.2297 -3.3463 4.7166 1.9200 -0.3115 5.5896 -0.6791 0.0655 6.0917 -2.0615 -1.0391 0.8540 2.2835 0.7611 1.2471 2.1335 3.4912 -1.5951 2.2249 4.0105 -3.0130 0.7077 3.4956 -1.0912 1.6236 3.0562 -4.0209 0.6263 2.8726 0.2860 2.5053 1.8442 -4.2435 -2.9469 -1.7381 3.3630 -1.2307 0.0203 3.7666 0.1896 -1.2152 -1.0205 0.9996 -0.3116 4.5231 0.3475 1.4595 0.1879 0.1431 -1.4791 1.4325 -0.5427 -0.9621 -6.2613 -1.1426 -1.7818 -5.3751 0.5114 -0.0499 -5.8384 -0.7654 -1.7605 -3.9683 1.7213 0.2752 -2.4565 -3.2572 -2.1924 4.7693 -1.4906 -1.3534 3.1767 0.8549 -0.9126 0.3062 1.8174 0.6514 -3.8089 -0.2948 -0.0852 4.9364 -1.1977 -1.2655 1.6966 1.2548 0.5150 0.6192 0.7658 -0.6671 -2.2670 0.8902 -0.0576 -4.5516 0.2157 -0.9327 -3.5837
-4.4332 -2.4387 4.3023 -4.2044 -2.2766 1.8547 0.2946 -0.2304 7.4309 1.4451 -0.0735 5.0106 0.0979 -2.6800 2.4412 2.1947 -1.3418 -0.5698 2.1144 3.3787 -1.2595 2.2939 4.0652 -2.5924 2.7762 2.0205 -1.2204 1.6361 3.3331 -3.7364 2.5790 1.4063 0.1466 0.1331 3.2114 -3.5842 -2.7627 -0.9143 3.3106 -0.6745 0.2467 3.9547 -1.1110 -0.9726 -1.1470 -0.4746 0.1482 6.3128 1.3450 0.6619 0.2158 -0.7197 -0.8764 1.2352 1.1588 -0.6002 -5.9514 0.8982 -1.7181 -5.2450 0.7866 0.7084 -5.4349 0.2341 -1.6438 -3.9503 -0.7691 1.3060 -2.2311 -3.4597 -2.2458 3.1669 -1.2815 -1.0840 3.5669 -0.1333 -1.2562 -0.0241 -0.2413 1.8239 -3.4308 0.2328 0.0669 5.1338 -0.5616 -1.6462 2.3674 1.2647 -0.6728 -0.1224 -0.7045 -0.0481 -2.2190 0.1662 0.7807 -4.2474 -0.1201 -0.4384 -3.4845
-4.2172 -2.4453 4.1647 -4.8778 -0.8568 2.3991 1.4365 -2.5595 6.5873 -0.3142 -0.5395 6.6883 -0.4159 -2.8151 2.0397 2.0991 0.6048 1.2514 2.6926 3.5349 -1.8544 2.6550 3.0239 -3.2753 1.2862 3.6407 -1.3150 3.5550 1.8143 -3.3901 1.2241 3.0759 0.0852 3.0044 0.7870 -4.3590 -2.6824 -0.6129 3.4977 -0.3430 -0.3240 4.3090 -0.5098 -0.5849 -1.0283 1.0340 -1.9290 5.3930 0.5304 1.8147 0.0526 -0.6940 -0.6136 1.3752 -1.1897 0.3964 -6.1809 -2.1162 0.0471 -5.2664 0.2188 0.4860 -5.8187 -1.7298 -0.2438 -3.8930 1.5466 -0.1537 -2.5225 -3.7204 -1.6011 3.0174 -1.3142 -1.2499 3.6105 0.2519 -0.5766 0.2844 1.7814 0.1888 -3.8710 0.0996 -0.9387 5.6045 -0.7519 -1.6568 2.2712 1.0798 0.6606 0.5658 0.2298 -0.3773 -2.2918 0.5821 0.1879 -4.5620 -0.4309 -0.1846 -3.5687
-4.0283 -2.8258 3.1795 -4.3996 -1.0273 1.5317 -0.5004 -2.5176 7.4848 1.2641 -1.8256 5.5947 0.2325 -2.8966 2.0332 2.2708 1.2557 1.2514 2.4503 3.7347 -2.3476 2.5792 3.6005 -3.8436 1.0238 3.4505 -1.9486 3.3219 2.3215 -4.1418 0.9688 3.1038 -0.4823 2.4202 1.3308 -4.8418 -2.4805 -0.8862 3.0647 -0.3950 -0.6145 4.3734 0.8550 -1.3286 -0.8605 -0.8807 -1.6091 6.4762 0.6496 1.7082 -0.3299 -0.1853 -0.7369 1.3042 -2.1472 0.8247 -4.7199 -2.5596 0.0922 -3.6660 -0.7313 1.0993 -4.9255 -1.5990 -0.4542 -2.7153 1.9399 -0.0561 -2.7820 -3.3556 -1.8266 2.2712 -1.1387 -1.4981 3.3987 0.9586 -0.5680 0.4477 1.5302 0.6735 -3.9165 0.1037 -1.4323 5.5288 -0.2846 -1.7919 2.1881 1.3884 0.8794 0.4822 0.8700 -0.5771 -2.1305 0.1554 0.6015 -4.0501 -0.2967 -0.2038 -2.9083
-3.7202 -3.2081 4.3168 -4.1973 -2.9951 1.9045 0.7636 0.2400 6.8075 -1.5644 1.2475 5.9386 0.2978 -2.5204 2.8110 2.7914 -0.9732 0.0412 1.5002 3.5190 -1.3756 1.6278 4.2143 -2.7093 2.5004 2.3964 -1.2219 1.0073 3.4616 -3.8625 2.4527 1.8717 0.1966 -0.3796 2.9222 -3.5747 -2.8629 -1.2585 3.0399 -1.1703 0.4463 3.7227 -0.2932 -1.4727 -1.1127 0.4782 0.2548 5.4275 1.4245 0.8708 0.3378 -0.4718 -0.9633 1.2696 1.2484 -0.5579 -6.1206 1.3225 -1.7083 -5.4222 0.6815 0.6401 -5.5191 0.8469 -1.7774 -4.0462 -0.5806 0.8666 -2.1407 -3.1832 -2.7350 2.9894 -1.4364 -1.0227 3.4823 0.4330 -1.3347 0.2122 -0.3220 1.4919 -3.3788 -0.8046 0.6809 5.1596 -0.4405 -1.5883 2.5004 1.6823 -0.4793 0.2354 -0.1841 -0.4312 -2.1564 0.2275 0.5751 -4.2581 0.3250 -0.6733 -3.4942
0.6294 -3.6940 5.2893 1.3188 -4.3731 3.0242 -3.9317 -0.5207 6.4620 -2.9890 0.9490 4.4239 0.8019 0.4204 3.5887 0.4732 2.6526 0.7274 -1.7297 3.7415 -2.8468 -0.4168 3.9565 -3.5668 -1.8576 2.3395 -2.2995 -0.0814 2.8358 -4.5262 -1.9193 2.3409 -0.7916 1.4056 2.5527 -4.4672 -0.5320 -2.7770 3.3030 -2.2580 -1.0091 3.2665 1.3034 -0.5478 -0.4989 -3.5061 -1.1555 5.2777 -1.0916 1.2752 -0.2829 0.1150 -0.5187 1.5828 2.0241 -1.8735 -5.5638 2.0047 -2.6769 -4.4818 1.9117 -0.4281 -5.4212 1.8570 -2.1196 -3.1441 1.5263 1.3114 -2.2823 0.7941 -3.2336 3.8624 -0.8276 -1.3314 3.6414 0.9080 0.3024 0.6941 1.6625 1.3686 -3.6831 -2.9315 -0.2758 4.3872 0.1216 -0.3804 2.9528 0.0740 1.5344 0.4065 1.5707 0.0333 -1.8317 1.8035 0.0898 -4.1885 1.7671 -0.7888 -3.0135
-0.0061 -3.9611 4.2727 1.1507 -4.2761 2.1193 -4.0412 -0.3999 5.6515 -4.0418 -1.7344 3.3354 0.9767 0.3324 3.5785 2.1988 3.1396 0.6587 -1.4633 3.9167 -2.1356 -1.0020 3.5840 -3.5339 -0.2707 4.2687 -1.2778 -1.4725 2.1954 -3.9007 -0.5367 3.8883 0.1609 -0.3247 1.4003 -4.4833 -0.5537 -2.5084 2.3352 -2.1143 -0.5637 2.5485 2.2990 0.2066 -0.3633 -3.0452 -0.1251 4.6932 -0.0330 2.5658 0.4473 0.5146 0.0354 1.3245 1.5408 -2.7801 -4.7015 2.2755 -3.0716 -3.6097 0.7814 -1.5396 -4.7793 2.3267 -2.1544 -2.4790 0.7716 1.0252 -2.2514 0.5426 -3.2606 3.0539 -0.7874 -1.1555 2.9674 1.6141 0.8251 0.8399 0.2747 0.5508 -3.4808 -3.1728 -0.8975 3.5595 0.3299 -0.1885 2.6729 1.2992 2.3011 0.6854 1.5420 0.1015 -1.6298 0.8106 -0.7004 -3.7328 1.6164 -1.0201 -2.5456
-0.8724 -4.6654 2.2977 1.2715 -4.7491 3.4982 -3.8120 0.0392 5.0202 -3.4270 -2.2429 3.6780 0.8148 0.6105 3.7117 -0.9747 1.8774 0.6406 -0.7922 3.8715 -2.9378 -0.1329 3.6247 -4.2735 0.1608 4.6077 -2.0262 -0.4577 2.2244 -4.7415 -0.1861 4.3270 -0.5826 0.8113 1.4150 -4.9086 0.4842 -2.6228 2.5366 -1.6332 -1.3025 2.4133 2.3539 0.8886 -0.1694 -2.8080 -0.0251 4.0336 0.6979 3.3211 -0.0465 0.7934 0.0071 1.4710 0.0439 -2.8324 -3.2726 0.4521 -2.9714 -1.9954 0.2230 -1.5715 -3.9796 1.0820 -1.8634 -1.2899 1.7568 1.3821 -2.5810 0.0555 -3.9024 3.2119 -0.2739 -1.4268 3.0729 1.3439 1.2186 0.9195 1.1436 0.7460 -3.6755 -2.7134 -1.2708 3.4529 0.5089 -0.1636 2.8088 0.2151 2.1457 0.4951 1.8133 0.5586 -1.5063 0.8108 -0.5519 -3.3359 1.2468 -0.7034 -1.9399
0.9243 -1.4792 6.5477 2.4205 -2.8326 5.1385 -4.3980 0.4035 3.7366 -3.6877 -2.0991 4.3867 1.1102 -1.9404 1.8295 -1.5266 2.0869 0.5992 -1.7591 1.1732 -4.0774 -1.0659 2.0656 -5.0832 -2.3071 1.9303 -2.8870 -0.1103 3.0453 -4.4430 -2.7152 0.9672 -1.7943 1.3348 2.6353 -4.6394 0.0999 -2.4161 4.4123 -1.8208 -2.0323 2.9033 1.4392 1.3052 0.1558 -3.4054 -0.2606 2.9869 -1.5583 0.4824 -1.0842 0.1498 0.1670 1.8575 2.7002 -1.7031 -4.0632 2.6729 -2.0763 -2.7683 2.4223 -0.3265 -4.4510 2.3878 -1.1037 -1.7229 1.5719 2.3284 -2.1577 1.2943 -1.8273 5.1280 -0.5645 -1.4153 3.4853 0.2343 0.4336 0.4491 1.8191 1.9144 -3.4836 -3.0557 -1.4717 3.5420 0.3352 -1.1215 2.3140 -1.0478 1.1106 0.0346 1.7640 1.3120 -1.2844 2.1773 0.5760 -3.4891 2.1643 0.1688 -2.0783
1.3929 -3.5354 4.4754 2.8123 -3.0118 2.5285 -4.4403 -1.0031 4.5065 -3.5215 -2.8975 2.8554 0.1225 0.7079 3.7127 -0.2381 3.6079 0.8772 -1.7799 2.9971 -3.2634 -1.2621 2.3579 -4.5288 -2.2604 1.9276 -2.3116 0.1741 2.7743 -4.7423 -2.1306 2.4230 -0.8916 1.0894 1.5694 -4.7780 0.3992 -2.5215 2.4414 -1.8119 -1.4601 2.0123 2.1500 1.5246 0.1448 -3.3866 -0.7012 3.6210 -1.0390 1.7474 -0.2381 0.5423 0.2368 1.4816 1.3713 -2.6881 -3.0621 1.7171 -2.7012 -1.7593 1.2060 -1.4296 -3.7772 1.9180 -1.4558 -1.0314 1.6712 1.8473 -2.3304 1.6161 -2.5733 3.3358 -0.5514 -1.4172 2.8480 0.9722 1.5576 1.1061 1.3479 1.0586 -3.4530 -2.9889 -1.7924 2.8801 0.0708 -0.0469 2.7449 -0.1923 2.4038 0.6304 1.8776 1.0734 -1.2366 1.3975 -0.2808 -3.1114 1.7547 -0.2987 -1.6870

>  <OB_ATOM_TYPES> (1mmqA1)
C.3 C.3 O.3 O.2 O.2 O.2 C.3 C.3 C.3 C.3 C.3 C.3 C.3 C.3 C.3 N.am N.am N.am C.ar C.ar C.ar C.ar C.ar C.3 C.3 C.3 N.ar C.2 C.2 C.2 C.ar C.ar C.ar

>  <ENSEMBLE_RMSD> (1mmqA1)
0.000 1.210 1.440 1.519 1.562 1.620 1.749 1.751 1.758 1.813 1.857 1.872 1.879 1.893 1.936 1.957 1.964 2.033 2.068 2.096 2.177 2.240 2.288 2.311 2.341 2.420 2.458 2.492 2.518 2.555 2.557 2.596 2.626 2.650 2.655 2.664 2.705 2.718 2.786 2.792 2.808 2.820 2.824 2.872 2.919 2.931 2.954 2.972 3.033 3.145

$$$$
