
 OpenBabel03071213D

 25 25  0  0  0  0  0  0  0  0999 V2000
   -1.8480   27.4200   18.9930 C   0  0  0  0  0
   -0.5380   25.8050   20.2770 C   0  0  0  0  0
   -6.9760   23.5280   22.0790 C   0  0  0  0  0
    0.8610   31.1850   22.5810 O   0  0  0  0  0
   -1.6560   31.3070   21.5320 O   0  0  0  0  0
   -3.9210   27.2370   23.4660 O   0  0  0  0  0
   -6.2180   25.5760   20.3170 O   0  0  0  0  0
   -1.6460   27.6780   21.5070 C   0  0  0  0  0
   -2.4560   29.6990   22.9610 C   0  0  0  0  0
   -7.5580   27.8650   21.5540 C   0  0  0  0  0
   -5.1290   27.8230   21.6570 N   0  0  0  0  0
   -8.1990   31.5970   23.4700 C   0  0  0  0  0
   -7.6900   31.5700   22.1720 C   0  0  0  0  0
   -8.4790   30.4520   24.1450 C   0  0  0  0  0
   -7.4810   30.3530   21.5530 C   0  0  0  0  0
   -8.2810   29.2580   23.4830 C   0  0  0  0  0
   -6.7760   24.8860   22.4380 N   0  0  0  0  0
   -0.1510   30.5060   22.9860 N   0  0  0  0  0
   -1.7950   26.6720   20.3490 C   0  0  0  0  0
   -2.8150   28.6040   21.9250 C   0  0  0  0  0
   -6.3010   27.1380   22.0590 C   0  0  0  0  0
   -1.3850   30.5520   22.4640 C   0  0  0  0  0
   -3.9840   27.8500   22.3950 C   0  0  0  0  0
   -7.7780   29.1720   22.1900 C   0  0  0  0  0
   -6.4320   25.7800   21.5310 C   0  0  0  0  0
  1 19  1  0  0  0
  2 19  1  0  0  0
  3 17  2  0  0  0
  4 18  2  0  0  0
  5 22  2  0  0  0
  6 23  2  0  0  0
  7 25  2  0  0  0
  8 19  1  0  0  0
  8 20  1  0  0  0
  9 20  1  0  0  0
  9 22  1  0  0  0
 10 21  1  0  0  0
 10 24  1  0  0  0
 11 21  1  0  0  0
 11 23  1  0  0  0
 12 13  2  0  0  0
 12 14  1  0  0  0
 13 15  1  0  0  0
 14 16  2  0  0  0
 15 24  2  0  0  0
 16 24  1  0  0  0
 17 25  1  0  0  0
 18 22  1  0  0  0
 20 23  1  0  0  0
 21 25  1  0  0  0
M  END
>  <MOLID> (1mncA1)
1mncA1

>  <SMILES_CANONICAL> (1mncA1)
C=NC(=O)[C@H](Cc1ccccc1)NC(=O)[C@@H](CC(=O)N=O)CC(C)C	

>  <FINGERPRINT> (1mncA1)
0000000000000011000000000000000000000001000000000011001000000000000000000001000000000001010000000000000000000001000001100000000000000000000000001000000000000000000000000000000000000000110000000000000000000000000000000000000000100000000000000000000000000100000001000010000000001000100000001000000000001000000011001100000000001000001100000000000000000000010000000000001110110000000000000100011000000001100000000000101000000000010000000000000000000000100000000000000000000000000000000000000000000000000000000000000000000000000000000000100000000000000000100000000000000000000000000000000000000000001000000000100000000000000000000000001000001001000000000000000000000001000000000011100000100000000001100001000000000000000000000000000000000001100000110111000000000000000110000000000000000000000010001000000010000000000000000000000000000000010000000000000000010000000000000001000000000000000000000000000000001100000000000000000000000010000000000000011000000000000010110010000000000000010000000000000000000000100000000010011000000000

>  <MACCS166> (1mncA1)
000000000000000000000000000000000100000000000000010000000000001000000011010101100000000001010110001001010001011000101010000100000111000100011100010010100111011110111000

>  <OB_MW> (1mncA1)
345.169

>  <OB_logP> (1mncA1)
2.6774

>  <OB_PSA> (1mncA1)
105.03

>  <OB_MR> (1mncA1)
96.1097

>  <OB_ATOMIC_CHARGES> (1mncA1)
1.26849e-05 1.26849e-05 0.1065557471 -0.1531295718 -0.269760012 -0.2733312632 -0.2711151239 0.0096298198 0.0995256149 0.0574263957 -0.1974101604 -2.0017e-05 -0.0003216891 -0.0003216891 -0.0041981876 -0.0041981876 -0.1750314238 0.0384831371 0.0004910885 0.0874432128 0.1773680515 0.2842431729 0.2417797947 -0.0199562759 0.2658221967

>  <MCT_HBD> (1mncA1)
1

>  <MCT_HBA> (1mncA1)
7

>  <ENSEMBLE_TOTAL> (1mncA1)
50

>  <ENSEMBLE_COORDS> (1mncA1)
2.0875 -0.4559 -3.2752 2.7834 -2.7889 -2.9359 -2.8167 -3.9071 1.0261 4.0690 2.8263 2.3600 4.6057 2.3328 -0.3621 1.1445 -0.8152 1.7613 -1.2005 -3.0591 -0.9407 3.0973 -1.1672 -1.1075 2.4822 1.2345 -0.5579 -2.1634 -0.1472 -0.8023 0.1464 -0.7081 -0.3265 -4.4350 2.7493 1.3865 -3.3418 3.1501 0.7126 -4.8360 1.3542 1.3561 -2.5581 2.1854 -0.0389 -4.1142 0.4608 0.6567 -2.1210 -2.8297 1.1807 3.3587 2.3698 1.4751 2.2078 -1.5679 -2.2621 2.4915 -0.2061 -0.1137 -1.2153 -0.8941 0.1111 3.5559 1.9890 0.1664 1.2046 -0.6190 0.5499 -2.9188 0.8893 -0.0517 -1.5136 -2.3759 0.0322
3.8280 -1.0465 -3.0111 1.4166 -0.6106 -2.8744 -2.9965 -4.5221 0.4775 4.3778 2.9169 -0.3469 2.5059 1.9209 2.2956 0.7470 -1.3803 1.9912 -1.2842 -3.3032 -1.2186 2.7050 -1.1531 -0.8221 1.9452 1.1263 0.0925 -2.4533 -0.5312 -0.6653 -0.1351 -1.0456 -0.1269 -3.1447 3.3964 0.9185 -2.7398 3.2587 -0.3569 -3.3443 2.2201 1.7456 -2.4914 1.9357 -0.9030 -3.1313 0.9944 1.2351 -2.2833 -3.5172 0.8650 3.8745 2.5864 0.7170 2.7358 -0.4479 -2.1587 2.1203 -0.3567 0.3249 -1.5087 -1.3596 0.1827 2.7621 1.8733 1.0999 0.8479 -0.9776 0.8354 -2.6648 0.8442 -0.1350 -1.6888 -2.8219 -0.1621
3.2727 -0.2998 -3.1255 3.0096 -2.7241 -2.8697 -3.2323 -3.5656 0.6589 5.3913 2.5979 1.3673 2.5970 2.6384 1.4097 1.0725 -1.2954 1.6911 -1.1368 -2.9419 -0.9595 3.2004 -1.3203 -0.8614 2.5401 1.0974 -0.4226 -2.1534 0.0291 -0.8403 0.1337 -0.5942 -0.3090 -4.8281 2.6206 1.2818 -5.2956 1.4618 0.7837 -3.4323 2.9778 1.0998 -4.4009 0.5655 0.0724 -2.6033 2.1484 0.4408 -2.3483 -2.6871 1.0001 4.5911 1.9896 0.6689 2.6576 -1.3831 -2.2712 2.5042 -0.3349 0.0443 -1.2495 -0.7691 0.0758 3.2147 1.9429 0.6134 1.1734 -0.7932 0.5741 -3.1011 0.8823 -0.0737 -1.5766 -2.2430 -0.0491
2.4598 -0.8632 -3.1084 3.1928 -3.1145 -2.4623 -3.0146 -3.6786 0.3948 4.0617 3.0477 2.1978 4.7056 2.2888 -0.4081 1.0830 -0.9607 1.7352 -1.2886 -2.6549 -1.3733 3.2889 -1.3023 -0.7996 2.6129 1.1329 -0.5908 -2.0196 0.2956 -0.8141 0.2161 -0.5496 -0.3740 -4.8601 2.3420 1.6584 -5.2798 1.3290 0.8790 -3.4589 2.7227 1.6613 -4.3319 0.6206 0.0367 -2.5811 2.0706 0.8783 -2.3144 -2.6414 0.7143 3.3739 2.4758 1.3622 2.5152 -1.8571 -1.9738 2.5778 -0.2483 0.0141 -1.1760 -0.6729 -0.0128 3.6400 1.9730 0.1059 1.2267 -0.6313 0.5602 -3.0320 0.9686 0.0433 -1.5974 -2.0925 -0.3245
3.4907 -1.2827 -2.9559 2.5512 -3.3175 -1.9154 -2.5551 -4.0443 -1.0822 5.3795 3.0204 0.1984 2.6355 3.0328 1.0178 0.1813 0.9621 -1.1848 -1.0031 -3.2806 0.9790 2.8285 -1.2783 -0.5699 2.6796 0.6365 0.9947 -1.9541 -0.4076 1.4787 0.1172 -0.8279 0.2882 -4.5356 2.8204 0.3651 -3.2948 3.0960 0.8056 -4.9916 1.4428 0.2909 -2.4116 2.0159 1.2063 -4.1780 0.4414 0.6702 -2.5706 -2.8193 -0.6733 4.5822 2.1290 0.4453 2.5038 -1.8107 -1.9449 2.2483 0.1008 -0.3513 -1.3112 -1.0091 0.2467 3.2669 2.0028 0.8202 0.7450 0.1365 -0.4702 -2.8261 0.7393 1.1157 -1.5778 -2.4986 0.2249
3.3753 -0.3824 -3.2566 2.8707 -2.7084 -2.6167 -2.8040 -4.5683 -0.0340 5.1267 1.6714 1.3404 2.1483 3.1143 0.7753 -0.2482 0.7188 -1.3240 -0.8482 -3.4114 1.3614 2.7487 -0.9293 -0.9148 2.3260 0.7186 0.9047 -2.0613 -0.5948 1.4646 0.0073 -1.0003 0.2135 -3.7155 3.1003 0.0636 -2.6016 3.1208 0.8176 -4.3758 1.8388 -0.2226 -2.0496 1.8791 1.3275 -3.8662 0.6875 0.2516 -2.4655 -3.3538 -0.3124 4.2158 2.3532 0.8844 2.5262 -1.2610 -2.3723 1.9401 0.2739 -0.4864 -1.3972 -1.3185 0.3105 2.8560 2.1178 0.8432 0.4547 0.0356 -0.5818 -2.6408 0.7063 1.0349 -1.5220 -2.8083 0.5285
3.4245 -2.2578 -1.7883 3.4554 -3.7463 0.1616 -3.3759 -3.3193 -1.5488 4.8044 3.6448 -0.2528 2.0756 2.9512 -0.3270 0.5121 0.0249 1.7880 -1.2582 -1.9189 -2.4400 3.2468 -1.3192 0.5074 2.6910 0.7106 -0.9084 -1.8972 0.5329 -0.6878 0.1828 -0.7064 -0.3871 -4.4835 1.9306 2.4350 -5.0222 1.3674 1.3385 -3.0429 2.0736 2.5427 -4.1629 0.8922 0.2681 -2.2486 1.6500 1.5439 -2.5726 -2.7474 -0.7139 4.2672 2.5539 -0.3877 2.8750 -2.4705 -0.3985 2.4002 -0.0833 0.3391 -1.2584 -0.7899 -0.3142 2.9639 2.1313 -0.5225 0.9415 -0.2503 0.6699 -2.8264 1.0069 0.3740 -1.6916 -1.8613 -1.2912
2.5634 -2.9697 -1.1024 3.4212 -2.2580 -3.2876 -3.1474 -2.9774 0.8460 6.0969 2.8886 0.5245 4.0900 1.3428 1.7195 1.1823 -0.7451 1.5079 -1.2332 -2.3926 -1.0920 2.5136 -0.5645 -1.7514 2.8066 1.4660 -0.3172 -2.2516 0.4955 -0.8045 0.0844 -0.0158 -0.3994 -5.6479 1.7487 1.4880 -4.6330 2.6121 1.3023 -5.5988 0.4308 0.8821 -3.4725 2.2148 0.5236 -4.5372 0.0727 0.1395 -2.0715 -2.2947 1.0616 5.0567 2.4447 0.0573 3.2832 -1.8631 -1.8374 2.5022 -0.0141 -0.3434 -1.2651 -0.2705 0.0549 3.9996 1.7186 0.5580 1.1987 -0.2936 0.3650 -3.4128 0.9822 -0.0126 -1.5279 -1.7585 -0.0822
3.8472 -1.4937 -3.1889 1.4735 -0.8781 -3.1017 -3.1114 -4.4679 0.6218 2.9831 2.9885 2.5202 3.6217 2.6742 -0.2141 0.9806 -1.3402 1.8291 -1.3747 -3.3584 -1.1348 2.7611 -1.2098 -1.0060 1.8108 1.1177 -0.4311 -2.4768 -0.5451 -0.4515 -0.1234 -1.1215 -0.1957 -2.7461 3.4620 1.0520 -3.5431 2.5138 1.5772 -1.8164 3.1211 -0.0095 -3.4655 1.1466 1.0905 -1.7499 1.8578 -0.4655 -2.2873 -3.5418 0.9883 2.4115 2.3838 1.6243 2.8126 -0.7004 -2.4265 2.1256 -0.2921 0.0130 -1.4601 -1.4061 0.2753 2.6832 2.0858 0.3078 0.9414 -0.9583 0.6625 -2.5862 0.8237 0.1244 -1.7114 -2.8615 -0.0611
4.4179 -2.9074 -0.7114 2.9379 -2.0170 -2.4554 -2.6720 -4.0803 -1.8602 4.7319 3.3579 0.6262 2.0775 3.0346 -0.1328 0.0439 0.3362 -1.7290 -1.5384 -3.5454 0.5013 2.6043 -1.3769 -0.0752 2.0442 0.8581 0.8861 -2.3764 -0.7480 1.2051 -0.2191 -1.0555 0.1043 -3.4381 3.3960 0.9476 -4.3861 2.4657 0.7331 -2.0838 2.9901 1.2760 -4.0513 1.0538 0.8119 -1.7783 1.6844 1.3695 -2.6570 -2.8652 -1.4228 3.9714 2.4269 0.8602 3.6204 -1.7013 -1.1452 1.9374 -0.0433 -0.3225 -1.6467 -1.2064 -0.0404 2.6717 2.1602 0.4852 0.4955 -0.2203 -0.7304 -2.7919 0.6768 1.0984 -1.9149 -2.6737 -0.2796
3.0878 -2.3246 -1.8352 3.4371 -3.7391 0.1423 -3.3664 -3.3224 -1.5876 3.3279 4.3174 -0.2503 4.6992 1.8469 -0.2091 0.5236 0.0277 1.7730 -1.2800 -1.8805 -2.4670 3.2485 -1.3039 0.4280 2.6786 0.7610 -0.9201 -1.9068 0.5455 -0.6730 0.1784 -0.6889 -0.4058 -4.4422 1.8899 2.5131 -4.9991 1.3474 1.4153 -2.9995 2.0227 2.6038 -4.1578 0.8884 0.3236 -2.2223 1.6177 1.5842 -2.5924 -2.7230 -0.7445 2.9490 3.1875 -0.5228 2.7628 -2.4905 -0.3708 2.3985 -0.0647 0.3083 -1.2617 -0.7809 -0.3254 3.5190 1.9361 -0.5231 0.9431 -0.2343 0.6481 -2.8198 1.0021 0.4097 -1.7055 -1.8375 -1.3145
4.0024 -1.3659 -2.9193 3.1792 -3.4538 -1.9113 -3.2959 -3.8569 -0.7815 1.6012 3.4692 1.2307 4.4270 2.0562 0.0218 0.2162 0.6571 -1.5981 -1.1286 -3.4297 0.7257 2.9842 -1.3489 -0.6558 2.5698 0.6827 0.7083 -1.5839 -0.4608 1.4525 0.1862 -1.1005 -0.0878 -3.9744 3.0448 0.8869 -2.6571 3.1815 1.1228 -4.5684 1.7213 0.8238 -1.8286 2.0047 1.3134 -3.8031 0.6305 1.0043 -2.9379 -2.6462 -0.5106 2.6593 3.1802 0.6868 2.9405 -1.9688 -2.0330 2.2822 -0.0107 -0.6038 -1.2378 -1.1029 0.1270 3.2797 1.9740 0.4391 0.7927 -0.1029 -0.8228 -2.3764 0.7781 1.2432 -1.7284 -2.5324 0.1375
4.3947 -2.9195 -1.6704 2.8191 -1.6327 -3.0534 -2.9895 -3.5785 -0.5656 5.9802 2.2439 0.0482 3.2955 2.8940 0.7848 0.4946 1.0290 -1.4629 -1.4016 -2.6169 1.3372 2.7586 -1.4350 -0.5855 2.8325 0.5469 0.9291 -1.8360 0.3156 1.3255 0.1333 -0.5432 0.2051 -5.6882 1.9773 0.4675 -4.5893 2.7014 0.1883 -5.5587 0.6626 1.0700 -3.2719 2.1603 0.4730 -4.3400 0.1654 1.3446 -2.5345 -2.3758 -0.6843 5.0420 1.5637 0.4353 3.6483 -1.6142 -1.7919 2.3871 0.0192 -0.4145 -1.3087 -0.5161 0.1736 3.7067 1.7432 0.7082 0.9114 0.2345 -0.6239 -3.1506 0.9315 1.0073 -1.7350 -1.9564 0.3548
4.7146 -2.8327 -0.6580 2.9696 -2.3194 -2.2972 -2.6367 -3.5939 -1.8277 5.0127 1.7087 0.7263 2.1820 3.2685 -0.1552 0.3988 -0.1729 -1.9758 -1.3547 -3.2384 0.4719 2.9485 -1.2328 -0.0548 2.2100 1.0247 0.7202 -2.1214 -0.4837 1.4057 -0.0019 -0.7618 0.2300 -4.5223 3.0466 0.9886 -5.1149 1.8403 0.9294 -3.0882 3.1385 1.1950 -4.3210 0.6305 1.0639 -2.3527 2.0196 1.3236 -2.5438 -2.4002 -1.3434 4.1920 2.5169 0.3000 3.8157 -1.7396 -1.1873 2.1937 0.0279 -0.4173 -1.4372 -0.8637 0.1090 2.8223 2.3095 0.2539 0.7762 -0.3018 -0.8132 -2.9885 0.7138 1.2336 -1.7529 -2.3045 -0.2215
4.6742 -2.3078 -2.3802 3.2103 -0.6531 -3.4587 -3.4468 -3.4626 0.5674 5.6358 0.6999 1.0303 3.0666 2.8369 0.5543 0.2627 0.7154 -1.7345 -1.2074 -2.5565 1.7414 2.8905 -1.2298 -1.0619 2.6833 0.4669 0.7679 -1.6997 0.3824 1.2188 0.1385 -0.7330 0.0708 -5.5779 1.9694 0.3304 -4.4892 2.6248 -0.1110 -5.4283 0.7437 1.0934 -3.1625 2.1042 0.1709 -4.2009 0.2699 1.3687 -2.6969 -2.6057 -0.0425 4.8778 1.6588 0.9447 3.9000 -1.0300 -2.1691 2.2917 0.0924 -0.6417 -1.2955 -0.6889 0.2270 3.5151 1.7122 0.7306 0.7974 0.0739 -0.8328 -3.0235 0.9640 0.8714 -1.7155 -2.0473 0.7446
3.8030 -2.1507 -2.4079 2.9738 -3.7949 -0.7697 -2.9140 -3.2580 -1.8538 1.8419 3.5981 0.1459 4.7007 1.8638 0.6780 0.6322 0.2009 -1.9277 -1.1332 -3.1789 0.1886 3.0639 -1.4149 -0.1511 2.5593 0.7868 0.8731 -1.9986 -0.5318 1.2761 0.1646 -0.6673 0.1719 -4.3656 3.0400 1.2394 -4.6830 2.0421 0.3951 -3.2403 2.8933 2.1454 -3.8989 0.8203 0.3896 -2.5024 1.7687 2.1283 -2.1152 -2.2546 -1.7007 2.9824 3.1876 0.3198 2.8243 -2.3852 -1.2846 2.4326 -0.0574 -0.3762 -1.2597 -0.7868 -0.0198 3.4810 1.9355 0.6114 0.9878 -0.1446 -0.8034 -2.8326 0.6975 1.2021 -1.5036 -2.2091 -0.4696
3.7906 -2.1630 -3.2845 1.6063 -1.0572 -3.4280 -3.0054 -4.0940 0.0692 2.2441 2.9598 1.8411 4.8902 1.4660 0.3798 0.1813 0.9241 -1.1559 -1.0117 -3.1330 1.5770 2.7746 -1.2462 -1.2384 2.8989 0.1789 0.8162 -1.6923 -0.2180 1.5201 0.2349 -0.9447 0.2207 -4.3634 2.8149 0.1047 -3.0476 3.0851 0.1708 -4.8607 1.5166 0.5242 -2.1274 2.0792 0.6687 -4.0064 0.5775 0.9679 -2.3761 -3.0291 -0.3038 3.3419 2.5501 1.4885 2.9452 -1.0444 -2.7277 2.3061 0.0236 -0.5650 -1.1960 -1.0644 0.3673 3.7629 1.4026 0.8516 0.8007 0.0694 -0.5265 -2.5831 0.8650 1.0273 -1.5076 -2.5188 0.6347
4.9358 -1.5310 -0.7386 3.5655 -3.4635 -0.0877 -2.6213 -3.5829 -2.1784 2.4559 3.7197 -1.3548 4.4154 1.5957 0.3967 0.2464 -0.3699 -2.1482 -1.3364 -3.3152 0.1508 2.6670 -1.1975 0.2093 2.0429 1.2111 0.2159 -2.3190 -0.7109 1.2873 -0.1928 -0.7558 0.0951 -3.9458 3.2344 1.6632 -2.6828 3.0041 2.0645 -4.7425 2.1506 1.1158 -2.1165 1.6728 1.9463 -4.2166 0.9175 1.0000 -2.6755 -2.4576 -1.5468 3.3363 3.1250 -0.7461 3.5278 -2.0721 -0.6712 2.0250 -0.0762 -0.5783 -1.6204 -0.9349 -0.0393 3.3244 1.9443 -0.0342 0.6080 -0.4098 -0.9743 -2.8437 0.6742 1.4126 -1.8371 -2.3722 -0.4592
4.2816 -3.1603 -0.7018 2.4680 -2.4162 -2.1717 -2.6795 -3.8101 -2.1434 1.2284 3.4004 -0.1891 4.1849 2.2400 0.9150 0.2735 0.5293 -1.5892 -1.4533 -3.5484 0.2034 2.7906 -1.3654 0.0608 2.2070 0.8632 1.0003 -2.1782 -0.7606 1.1490 -0.0200 -1.0797 0.0499 -3.1618 3.4142 1.1333 -3.9725 2.5498 0.4961 -1.9757 2.9255 1.8115 -3.6675 1.1295 0.4865 -1.6908 1.6110 1.8044 -2.5515 -2.6314 -1.6322 2.3901 3.2282 0.1612 3.4796 -1.9594 -1.1464 2.1510 -0.0253 -0.2241 -1.4497 -1.1645 -0.1152 2.9907 2.1013 0.6889 0.7148 -0.1608 -0.6724 -2.5619 0.6776 1.1074 -1.7976 -2.5880 -0.4823
4.6064 -2.6704 -2.0267 3.8813 -0.5846 -3.1120 -3.6621 -3.9077 -0.4694 1.8656 2.8797 2.0462 4.1853 1.8072 -0.1782 -0.0484 0.6466 -1.5768 -1.3802 -3.4536 0.8389 2.6255 -1.4866 -1.1628 2.5001 0.2713 0.6222 -1.8123 -0.5007 1.4354 -0.0622 -1.1577 -0.1192 -3.7871 3.2279 0.7111 -4.5277 2.1303 0.9489 -2.3377 3.1437 0.7222 -3.8778 0.8577 1.2042 -1.7346 1.9695 0.9776 -3.0139 -2.8120 -0.6882 2.7727 2.6736 1.2527 3.9868 -1.3148 -1.7946 2.0398 -0.1563 -0.7509 -1.4850 -1.1644 0.1158 3.2008 1.5930 0.5159 0.5392 -0.1634 -0.8634 -2.5353 0.7769 1.2043 -1.9390 -2.6052 0.1469
5.2647 -1.1895 0.0974 3.9808 -3.2584 0.3948 -3.2484 -2.9024 -2.0289 5.1560 2.0441 0.1163 2.7435 2.5318 -2.1785 0.3970 -0.4360 -2.1620 -1.4567 -3.0123 -0.0682 2.7956 -1.1033 0.3536 2.3531 1.2874 -0.1524 -2.0522 -0.4820 1.4451 -0.0227 -0.5913 0.1136 -5.0416 2.5681 1.7841 -3.7494 2.8954 1.9639 -5.4060 1.1979 1.4706 -2.7198 1.8781 1.8455 -4.4526 0.2559 1.3546 -2.7569 -1.7992 -1.5715 4.4872 2.3994 -0.8489 3.9594 -1.8795 -0.2190 2.2253 -0.1319 -0.6556 -1.4692 -0.6092 0.0515 3.1698 2.0816 -1.1238 0.7798 -0.4072 -0.9940 -3.0537 0.6132 1.5306 -1.8830 -1.9507 -0.5188
4.1095 -1.4536 1.6043 4.9915 -2.3647 -0.5074 -3.2044 -3.5480 -2.2591 4.4402 3.1392 -0.7617 1.6926 3.0077 -0.1306 0.1845 -0.5617 -2.3549 -1.6667 -3.4872 -0.0769 2.6489 -1.5938 -0.3766 1.9260 0.6860 0.3965 -2.3153 -0.7622 1.1241 -0.2628 -1.0936 -0.1439 -3.4176 3.3635 1.4700 -4.3752 2.4466 1.2422 -2.0347 2.9464 1.6081 -4.0257 1.0433 1.1140 -1.7102 1.6463 1.4992 -3.1056 -2.4544 -1.5802 3.7503 2.2152 -0.3550 4.0612 -1.3445 0.0987 1.9355 -0.3080 -0.7472 -1.7040 -1.0836 -0.2256 2.4193 2.0250 -0.0580 0.5296 -0.6417 -1.1789 -2.7398 0.6597 1.2135 -2.1271 -2.4818 -0.6145
4.0421 -2.5951 1.7135 3.4929 -2.6826 -0.6752 -2.8951 -3.2078 -2.8228 4.1908 3.7411 -1.4627 4.1605 1.9003 0.5067 0.5373 -0.5767 -2.1540 -1.4626 -3.3661 -0.6040 2.4319 -0.9671 0.8112 1.8575 1.3643 0.0873 -2.5223 -0.9003 0.9284 -0.2640 -0.9062 -0.0025 -3.7154 3.1227 1.8061 -4.1376 2.5494 0.6647 -2.8627 2.3803 2.7173 -3.7578 1.1848 0.3499 -2.4955 1.1213 2.4171 -2.7619 -2.1457 -2.1011 3.2170 3.0764 -1.1206 3.6837 -1.7597 0.5060 1.9938 -0.0817 -0.3349 -1.6707 -0.9890 -0.3221 3.1456 2.0929 -0.1505 0.6890 -0.5463 -0.9345 -2.9583 0.4986 1.1870 -1.9381 -2.3077 -1.0104
5.0430 -0.7287 -1.9738 3.6812 -2.7360 -2.3802 -3.0858 -3.6233 0.2115 5.1976 0.3321 1.3723 4.0105 2.8466 -0.5240 0.1276 0.8236 -1.9912 -1.1665 -2.3910 1.5941 2.8511 -1.0028 -0.8432 2.5182 1.1681 0.3497 -1.7070 0.5534 1.1095 0.0881 -0.5406 -0.1149 -5.8691 1.5497 0.8515 -5.4202 0.8585 1.9147 -4.9405 1.9714 -0.1819 -4.0116 0.5239 2.0242 -3.6335 1.6697 -0.0774 -2.7938 -2.3978 -0.0718 4.9656 1.4106 0.8378 3.6335 -1.2528 -2.1101 2.1909 0.3564 -0.8841 -1.3383 -0.5151 0.0981 3.8392 1.8544 0.1717 0.6987 0.2478 -1.0680 -3.1530 0.9011 1.0590 -1.7261 -1.8793 0.6266
3.9294 -1.9796 -2.7491 2.6152 -3.6825 -1.5489 -2.8857 -3.1188 -1.3764 2.7050 3.6206 0.7788 5.2230 1.3947 0.3448 0.7513 0.8487 -1.6891 -1.2864 -2.7475 0.7435 3.0399 -1.5081 -0.4831 2.9938 0.6129 0.8020 -1.5507 0.2130 1.3886 0.3518 -0.5614 0.1096 -5.4206 1.9845 0.9198 -5.2986 0.8476 1.6283 -4.2402 2.6268 0.3674 -3.9911 0.2435 1.8067 -3.0270 2.0717 0.5391 -2.6090 -1.9200 -0.9844 3.7311 2.9885 0.5690 2.7793 -2.2038 -1.7988 2.6235 -0.0530 -0.5043 -1.0843 -0.4387 0.1027 4.0436 1.6479 0.5493 1.1501 0.1375 -0.7699 -2.9025 0.8174 1.2628 -1.6410 -1.8418 -0.0081
5.3560 -1.3139 -0.7672 4.0200 -3.3486 -1.1005 -3.5334 -2.7206 -1.2295 5.5142 1.5142 0.7551 3.1567 2.9234 -1.2217 0.4691 -0.1627 -2.1796 -1.4512 -2.6584 0.4447 2.9462 -1.3196 -0.1957 2.5864 1.1056 0.2508 -1.8091 0.2118 1.4408 0.1175 -0.3952 0.1008 -5.8085 1.7499 1.3520 -5.5964 0.4932 1.7818 -4.6877 2.5716 0.9305 -4.2471 -0.0402 1.8209 -3.4373 2.0758 0.9600 -2.7767 -1.6747 -1.1942 4.8247 2.1912 0.0035 3.9951 -1.8412 -1.1497 2.3543 -0.0306 -0.7187 -1.3232 -0.2799 0.0913 3.5030 2.1072 -0.3785 0.8879 -0.1932 -1.0249 -3.2104 0.7103 1.4045 -1.8500 -1.6753 -0.1765
5.2251 -1.2754 0.1877 3.9025 -3.3363 0.2637 -3.0595 -2.6877 -2.4686 5.2301 1.8041 0.2994 2.8098 2.6672 -1.8552 0.4495 -0.2634 -2.1611 -1.5034 -2.9886 -0.3336 2.7515 -1.1640 0.3706 2.3491 1.2674 0.0508 -2.1109 -0.5681 1.3513 -0.0471 -0.6102 0.0770 -5.0510 2.5184 1.7877 -5.4553 1.2407 1.6711 -3.6342 2.8356 1.7675 -4.4746 0.1805 1.5139 -2.7254 1.8543 1.6269 -2.7549 -1.6468 -1.7676 4.5110 2.4094 -0.4884 3.9208 -1.9101 -0.2299 2.2265 -0.1043 -0.5725 -1.4900 -0.6018 -0.0316 3.2010 2.1285 -0.8287 0.7923 -0.3360 -0.9829 -3.1625 0.4763 1.4686 -1.9004 -1.8896 -0.7160
4.2486 -2.2916 -1.5140 3.3718 -3.5571 0.4079 -3.2009 -3.3905 -2.0852 0.9007 3.5635 -0.7786 4.0255 2.4751 -0.0787 0.6167 -0.3189 -2.1419 -1.0808 -3.3766 -0.4903 2.9916 -1.1348 0.2906 2.0956 1.1587 0.5087 -2.0780 -0.8299 1.1649 0.0648 -0.9665 0.0138 -3.2239 3.2414 1.8488 -2.1440 2.7463 2.4801 -3.9927 2.3948 0.9533 -1.7412 1.3694 2.2564 -3.6225 1.1178 0.7484 -2.8630 -2.2841 -1.5115 2.1023 3.3870 -0.6215 3.1142 -2.3998 -0.5249 2.2468 -0.0261 -0.4185 -1.3658 -1.0069 -0.1612 2.8097 2.3376 -0.0749 0.8965 -0.4385 -0.9513 -2.4390 0.5916 1.4089 -1.7328 -2.3623 -0.7294
4.4759 -3.2199 -1.8321 4.1360 -1.1434 -3.1067 -3.6905 -3.1284 -0.4523 2.7759 3.0243 1.7399 4.8523 1.4016 -0.3825 0.4602 0.9406 -1.6366 -1.5417 -2.7374 1.1010 2.7278 -1.6388 -1.1173 2.9343 0.2447 0.5274 -1.5454 0.2482 1.2773 0.1458 -0.7884 -0.1247 -5.3488 2.2012 1.0466 -5.2296 1.0780 1.7768 -4.1943 2.7422 0.3510 -3.9457 0.4081 1.8691 -3.0040 2.1213 0.4342 -2.8317 -2.2147 -0.7627 3.6184 2.6123 0.9550 4.1042 -1.7614 -1.7295 2.3855 -0.1999 -0.8081 -1.2740 -0.5923 0.0469 3.8487 1.4144 0.3176 0.9046 0.0551 -0.9095 -2.8792 0.9003 1.2132 -1.8848 -1.9678 0.2059
3.7509 1.0454 -3.2078 2.4061 -0.6128 -4.4328 -2.1596 -4.3696 1.4708 3.2465 2.4054 2.6187 4.3633 1.3391 0.2473 0.2642 -1.9471 -1.3488 -0.7505 -2.3983 2.6149 2.6748 -0.8153 -2.0003 2.8622 -0.5283 0.4253 -2.0654 0.1135 1.6034 -0.0136 -0.6563 0.5526 -4.1738 2.8866 -0.8820 -2.8911 3.1364 -0.5632 -4.8319 1.6970 -0.3710 -2.1628 2.2105 0.2842 -4.1575 0.8366 0.4126 -2.3473 -3.1472 1.0994 2.9877 1.3882 1.9916 2.5316 0.1590 -3.1423 1.9517 -0.3143 -0.7680 -1.4014 -0.9771 0.7882 3.4517 0.7836 0.8472 0.6595 -1.0780 -0.5767 -2.7638 1.0945 0.7349 -1.4314 -2.2517 1.6020
4.5676 -2.4086 1.4832 4.6269 -2.1346 -0.9638 -3.0782 -2.4544 -2.1290 5.6816 1.5373 -0.0483 3.1584 2.4163 -2.1446 0.4629 -0.1925 -2.1535 -1.5872 -2.6703 0.1086 2.7086 -1.2545 0.3453 2.6660 1.2027 -0.1280 -1.9113 0.0070 1.4708 0.0408 -0.3837 0.1174 -5.7310 1.9319 1.5378 -4.6202 2.6906 1.5208 -5.6235 0.4842 1.5316 -3.3113 2.0624 1.4904 -4.4124 -0.0988 1.5081 -2.9298 -1.4445 -1.3384 4.9236 1.9168 -0.9303 4.1982 -1.5011 0.3368 2.3143 -0.1754 -0.6397 -1.3972 -0.2695 0.0721 3.5617 1.8665 -1.1280 0.8496 -0.2437 -0.9887 -3.2127 0.7214 1.4595 -1.9455 -1.6054 -0.3902
4.2253 0.6253 -3.2995 2.5299 -0.6984 -4.5024 -2.0133 -3.9415 1.6929 2.3604 1.1895 2.6893 4.6073 1.2737 0.1653 0.3126 -1.8330 -1.3195 -0.6305 -1.8836 2.7208 2.8014 -0.9682 -2.0701 3.0568 -0.5663 0.3404 -1.8233 0.5666 1.5069 0.1599 -0.3670 0.4660 -4.9442 2.4438 -0.7385 -3.7052 2.9660 -0.7737 -5.2116 1.2586 0.0563 -2.6340 2.3399 -0.0215 -4.2205 0.6779 0.7560 -2.1991 -2.7474 1.2363 3.2487 1.4040 1.8754 2.8479 0.0159 -3.2121 2.1545 -0.3378 -0.8549 -1.2295 -0.6146 0.7686 3.6770 0.7348 0.7496 0.7926 -0.9501 -0.6138 -2.8767 1.2306 0.6995 -1.2865 -1.8188 1.6828
4.5545 -3.0088 1.2334 4.7452 -2.3812 -1.1371 -3.3826 -2.2572 -2.2277 2.2865 3.3672 -1.3177 4.9181 1.3487 -0.7236 0.6220 -0.0993 -2.0869 -1.7339 -2.7880 -0.2123 2.7673 -1.6822 0.1943 2.7717 0.8278 0.2549 -1.8726 -0.2975 1.4510 0.1043 -0.6733 0.1005 -5.1596 2.4355 1.7115 -3.9212 2.8746 2.0004 -5.3650 1.0564 1.3073 -2.7884 1.9706 1.9035 -4.3178 0.2175 1.2216 -2.7348 -1.2832 -1.6805 3.3683 2.8250 -1.1383 4.2574 -1.9322 0.2190 2.4144 -0.4081 -0.5389 -1.3196 -0.4316 0.0462 3.7435 1.6395 -0.5457 0.9607 -0.3708 -0.9372 -2.9765 0.6956 1.5173 -1.9419 -1.6449 -0.6150
4.3776 0.7128 -2.9887 3.0826 -1.0507 -4.1243 -2.2814 -3.5063 1.7102 5.8066 0.6187 0.6861 2.7945 1.6790 1.8091 0.4791 -1.6891 -1.2636 -1.0483 -1.3355 2.7178 3.1059 -0.9445 -1.6668 2.9967 -0.4744 0.7427 -1.9039 0.9791 1.0377 0.1455 -0.1451 0.4305 -5.7751 1.6064 -0.6709 -5.6846 1.1928 0.6060 -4.5712 1.8327 -1.4502 -4.3805 0.9708 1.2041 -3.3626 1.6322 -0.8964 -2.3657 -2.3695 1.1032 4.8325 1.1652 1.1855 3.1233 -0.1246 -2.9336 2.3032 -0.2516 -0.5861 -1.2813 -0.3137 0.5528 3.4964 0.8393 1.2619 0.8936 -0.7977 -0.5286 -3.2654 1.1714 0.4784 -1.5172 -1.3977 1.5831
4.4898 1.0008 -2.8431 3.1634 -0.5100 -4.2663 -2.8251 -2.7839 2.3456 5.9189 0.3109 0.6913 2.9560 1.3394 1.9675 0.4837 -1.5127 -1.4848 -1.0739 -0.7848 2.7983 3.1357 -0.7992 -1.8194 3.0359 -0.6728 0.6399 -1.8759 1.0749 0.6385 0.1916 -0.1209 0.3412 -5.9898 1.0900 -0.5249 -5.0463 1.1504 -1.4818 -5.6048 1.0474 0.8744 -3.6412 1.1642 -1.1164 -4.3044 1.0577 1.2154 -2.0921 -2.3222 1.3869 4.9550 0.8092 1.2543 3.2088 0.2092 -2.9407 2.3612 -0.2386 -0.6454 -1.2383 -0.2854 0.4510 3.6082 0.5354 1.3153 0.9280 -0.7191 -0.6609 -3.2862 1.0974 0.1794 -1.4581 -1.1371 1.6848
3.5863 -2.3637 0.2264 2.9331 -2.1201 2.5779 -3.3511 -1.3492 -2.8720 5.8972 0.7140 -1.2712 3.2199 2.4273 -2.4359 0.5047 1.9198 0.6146 -1.2485 -2.2759 -1.4921 3.0727 -0.1192 1.1599 2.9351 0.3050 -1.3433 -1.7008 -0.6879 1.0364 0.2272 -0.1691 -0.3534 -5.4975 0.9971 2.0742 -4.3810 1.6979 2.3432 -5.4023 -0.3091 1.4478 -3.0796 1.1483 2.0061 -4.1982 -0.8208 1.1383 -2.5852 -0.5254 -2.2367 5.0981 1.4745 -1.8031 2.7131 -1.5869 1.1826 2.4506 0.6694 0.0359 -1.2158 -0.1832 -0.3072 3.7217 1.4562 -1.8853 0.9662 0.8838 0.1415 -2.9924 -0.0566 1.4135 -1.6736 -1.1263 -1.3982
-0.0860 0.2743 -2.9880 1.4153 1.9696 -3.9268 -1.1869 -4.3720 1.6745 3.2481 -1.2468 2.2775 5.0650 1.2193 0.9088 1.3815 -1.8015 -0.5352 -0.2088 -2.0914 2.6489 1.5049 1.4519 -1.5142 2.6692 1.1798 0.6635 -2.1647 -0.0613 1.3410 0.1615 -0.2254 0.6399 -4.1443 2.3399 -1.6027 -3.0409 2.8186 -1.0006 -4.6515 1.0253 -1.2506 -2.3635 2.0232 0.0067 -4.0185 0.2828 -0.3245 -1.5449 -3.2523 1.1392 4.1193 -0.5731 1.7383 1.2983 0.8725 -2.8961 2.1481 0.4637 -0.5651 -1.0928 -0.9402 0.7265 4.0032 0.6333 1.0722 1.1923 -0.6415 -0.1749 -2.8216 0.7973 0.3200 -0.8823 -2.1460 1.6218
2.2845 0.4604 -4.5509 3.7477 -1.0723 -3.3013 -2.5933 -1.7925 2.6666 3.3804 -1.0971 2.3143 5.4102 1.0948 0.7283 1.1705 -1.7737 -0.4140 -0.4071 0.0048 2.6455 2.5304 0.7559 -2.1197 3.0464 1.1047 0.2878 -1.9253 1.2011 0.2862 0.3178 0.3522 -0.0385 -6.0624 0.2882 -0.3625 -5.2532 0.4355 -1.4271 -5.5353 0.4642 0.9785 -3.8466 0.7439 -1.2347 -4.2378 0.7695 1.1561 -1.6064 -1.7954 1.8327 4.2645 -0.3406 1.9326 2.4770 -0.2593 -3.2392 2.6070 0.1040 -0.7580 -1.0337 -0.0260 0.3158 4.3004 0.6309 0.9539 1.2980 -0.5518 -0.3901 -3.3494 0.8731 0.0089 -0.9842 -0.5744 1.7289
2.0280 3.2794 -1.0569 0.7601 2.6083 -3.0449 -2.2148 -3.4747 2.5447 5.4934 -1.9802 1.4235 5.5189 0.0770 -0.5717 0.9294 0.4075 1.4369 -0.7984 -3.4110 0.2504 2.0363 0.9066 -1.8176 3.3994 0.8104 0.2617 -2.2694 -0.9016 -0.8342 0.1186 -0.8350 -0.3413 -5.0536 2.2134 0.1499 -4.0964 2.4574 -0.7637 -5.1271 0.9131 0.7895 -3.1415 1.4199 -1.1177 -4.2463 -0.0479 0.4588 -1.6614 -2.3787 2.1433 4.7529 -1.0359 1.1976 1.2111 2.1675 -1.6725 2.2955 0.1456 -0.5342 -1.1940 -1.0341 0.2239 4.6162 -0.0573 0.2439 1.0551 -0.0508 0.3047 -3.2018 0.2168 -0.5175 -1.2103 -2.4159 0.8432
1.6351 3.1498 -2.4038 3.0333 1.1981 -2.9310 -2.4900 -4.0099 1.5002 6.3931 -0.8594 0.2702 4.8223 1.0609 1.6039 0.6647 -1.5057 -1.2898 -0.8718 -2.1548 2.5400 2.0635 1.4734 -0.6484 2.8517 -0.1878 1.0628 -2.2317 0.2620 1.2914 0.0273 -0.3370 0.6132 -5.2420 1.7174 -1.3841 -5.4854 0.5973 -0.6802 -3.9775 2.4128 -1.2269 -4.4832 0.0837 0.2372 -3.0447 1.9335 -0.3854 -2.0944 -3.0269 0.7621 5.1817 -0.7841 0.4201 1.8472 1.6815 -2.1314 2.2270 0.0086 -0.3019 -1.3463 -0.7712 0.6309 4.3233 0.0936 1.0417 0.9011 -0.7025 -0.3906 -3.3006 0.7141 0.3628 -1.4037 -2.0475 1.4371
3.6000 2.2393 -2.3187 2.6269 3.7842 -0.6603 -1.8104 -4.5097 0.7791 5.5791 0.1340 0.1155 3.4203 -2.4778 -0.0674 0.0936 -1.2381 -1.7900 -0.7587 -2.5314 2.2545 1.6219 1.5542 -0.9820 2.6562 -0.2590 0.4188 -2.2725 -0.0739 1.5121 -0.1605 -0.4965 0.3920 -4.7108 2.7538 -0.5833 -3.4312 3.0673 -0.3096 -5.2527 1.4761 -0.1548 -2.5880 2.1226 0.4006 -4.4695 0.5977 0.4969 -2.1319 -3.2830 0.5336 5.0108 -0.9362 -0.0692 2.9130 2.3379 -0.9787 1.8455 0.0666 -0.8183 -1.5048 -0.9828 0.5742 3.6842 -1.2910 0.0765 0.5103 -0.6329 -0.8051 -3.0795 0.9249 0.7667 -1.3913 -2.3462 1.2169
-0.1544 1.2543 -2.7817 1.6904 2.7675 -3.3651 -1.3124 -4.3109 1.7946 3.8653 -1.7119 2.1688 5.1831 0.7333 0.2381 0.9923 -1.6126 -1.0287 -0.3687 -2.0156 2.7846 1.6308 1.6926 -1.1404 2.8419 0.7259 0.7920 -2.1392 0.0522 1.3741 0.1754 -0.2788 0.6796 -4.3935 2.0561 -1.6672 -3.2505 2.6100 -1.2255 -4.8549 0.7977 -1.1077 -2.4804 1.9472 -0.1894 -4.1367 0.1766 -0.1545 -1.6244 -3.1971 1.2197 4.5459 -0.9702 1.4716 1.3229 1.5138 -2.6094 2.1578 0.4158 -0.5211 -1.1210 -0.9050 0.7883 4.2364 0.1853 0.7857 1.0562 -0.6023 -0.3313 -2.8913 0.7671 0.3093 -0.9712 -2.0912 1.7156
0.8317 1.9829 -2.7350 2.2954 3.7361 -1.8331 -1.7474 -4.6250 0.7917 5.5021 0.0690 0.3254 3.2548 -2.1932 1.4389 0.7386 -1.2063 -1.4831 -0.6347 -2.6436 2.1788 1.7041 1.8001 -0.4243 2.6750 0.1221 1.1298 -2.3905 -0.3063 1.2332 -0.0513 -0.4598 0.5648 -4.0951 2.7738 -1.2040 -4.4843 1.5014 -1.4024 -3.1309 3.0857 -0.1645 -3.9340 0.4385 -0.5804 -2.6163 2.1024 0.5950 -1.7968 -3.4260 0.3164 4.9152 -0.9261 0.7372 2.0106 2.2551 -1.8322 2.0725 0.3441 -0.2408 -1.3415 -1.0957 0.4809 3.5904 -1.0639 1.1052 0.8593 -0.5244 -0.4681 -3.0202 0.7244 0.3657 -1.2066 -2.4650 1.1049
3.7012 2.5411 -1.7012 2.6971 3.7583 0.1964 -2.0375 -4.5516 -0.0257 5.4869 0.1040 -0.2053 3.4125 -2.5843 -0.0769 0.1544 -0.9121 -1.9496 -0.9041 -2.8998 1.7418 1.6735 1.6519 -0.5799 2.6333 -0.3976 0.5072 -2.3396 -0.3002 1.4033 -0.1854 -0.5793 0.3198 -4.5623 2.9427 -0.2919 -5.1800 1.7655 -0.0832 -3.1662 3.1053 0.0741 -4.4461 0.6506 0.4903 -2.4887 2.0757 0.6116 -2.2242 -3.2787 -0.1382 4.9286 -0.9833 -0.2910 2.9732 2.3958 -0.3876 1.8768 0.1562 -0.6822 -1.5476 -1.0481 0.3518 3.6486 -1.3877 0.0306 0.5356 -0.5090 -0.8534 -3.1453 0.7927 0.8020 -1.4948 -2.5080 0.7373
0.3340 3.5947 0.4471 2.2646 3.3596 -1.0515 -1.6578 -4.7164 -0.0017 6.1728 -0.1058 -1.0578 4.3452 -2.1544 -0.3748 0.6645 -0.9735 -1.6312 -0.7945 -2.9958 1.8615 1.7146 1.5755 0.5695 2.9735 -0.5337 0.7274 -2.3974 -0.4917 1.2276 -0.0529 -0.6689 0.5524 -4.3056 2.7535 -0.8193 -3.2036 2.9916 -0.0865 -4.8569 1.4113 -0.8830 -2.5566 1.9029 0.6215 -4.2517 0.3996 -0.2340 -1.9815 -3.4692 -0.0811 5.1388 -0.0766 -0.4060 1.1467 2.6158 -0.3637 2.0504 0.2869 -0.1455 -1.3783 -1.2068 0.3631 4.1652 -0.9850 -0.0585 0.8217 -0.5126 -0.5026 -3.0348 0.6501 0.5216 -1.3204 -2.6510 0.8053
2.9600 1.6039 2.9461 4.1148 2.2778 0.8835 -3.4055 -3.2901 -1.1003 5.7818 -1.4185 -0.6404 4.2213 0.4614 -2.9782 0.3127 1.3427 -1.5184 -1.2833 -2.9136 0.4843 2.6016 0.3084 0.8823 2.9333 -0.7653 -1.3497 -1.7300 -0.0289 1.1946 0.1148 -0.6102 -0.2848 -5.6979 1.5742 1.0497 -4.6749 2.3318 0.6146 -5.4472 0.2390 1.5621 -3.3184 1.8158 0.6619 -4.1918 -0.2402 1.6068 -2.6887 -2.2243 -1.2358 5.4273 -0.6316 -1.5084 2.8418 1.6904 1.4445 2.2887 0.3736 -0.5949 -1.3209 -0.5959 -0.1493 4.1903 -0.2673 -1.9957 0.8082 0.4333 -0.8575 -3.0870 0.5752 1.1284 -1.7510 -2.0416 -0.2454
0.3458 0.9964 -2.7784 2.4463 1.8711 -3.6959 -2.4281 -2.6053 2.7068 4.8627 -1.7633 1.8626 5.5718 1.1025 0.2119 1.2865 -1.8344 -0.2283 -0.9194 -0.4197 2.8885 2.2933 1.3420 -1.2945 3.3074 0.5972 0.8531 -1.8857 1.0273 0.3744 0.3812 0.1675 0.5133 -5.7747 0.1745 -1.2173 -5.6160 0.2764 0.1145 -4.6353 0.3587 -2.0988 -4.3064 0.5682 0.6689 -3.4206 0.6245 -1.5858 -1.9227 -2.1003 1.6308 5.3463 -0.7838 1.3102 1.8519 0.9272 -2.6798 2.6085 0.1504 -0.4144 -1.0139 -0.2073 0.4924 4.7779 0.3389 0.7452 1.3634 -0.6216 -0.0483 -3.2443 0.7116 -0.1448 -1.2758 -0.8986 1.8138
3.3131 -1.9867 3.0036 4.5705 -0.1393 1.9760 -3.5105 -0.1210 -3.2300 3.6219 2.5601 -1.9589 5.1845 -0.4382 -1.9929 0.7596 1.5008 0.5515 -1.8205 -1.8729 -2.1020 2.7056 -1.2307 0.7394 2.8134 -0.3248 -1.5879 -1.9192 -0.9405 0.7185 0.0932 -0.4276 -0.5530 -5.3052 1.0820 2.3889 -5.4782 0.3062 1.3038 -3.9843 1.2273 2.9749 -4.3456 -0.3961 0.7294 -2.9296 0.5961 2.4284 -2.5941 0.2968 -2.4213 4.3600 1.5905 -2.0758 3.2118 -0.7882 2.0934 2.4392 -0.0410 -0.1519 -1.3269 -0.1899 -0.4561 4.1719 0.2391 -1.8748 1.0190 0.4414 -0.0147 -3.1165 -0.2410 1.2555 -1.9333 -0.7025 -1.7438
1.2066 3.9454 0.4463 2.5313 3.0863 -1.4401 -2.4095 -4.2962 0.5346 4.5623 -2.4561 -1.2527 5.3571 0.3161 0.5224 0.7621 -0.7625 -1.6870 -0.4408 -2.8595 1.6047 2.0557 1.6428 0.5284 3.1310 -0.5949 0.6422 -2.1651 -0.1747 1.2905 0.1160 -0.4542 0.5200 -5.0085 2.1488 -0.9206 -5.4296 1.0602 -0.2515 -3.6057 2.5209 -0.8899 -4.4801 0.2529 0.4952 -2.7269 1.7790 -0.1927 -2.1738 -3.1132 0.0742 5.0383 -1.4593 -0.7261 1.5184 2.7226 -0.3816 2.2737 0.3305 -0.1922 -1.2323 -0.9436 0.3793 4.5462 -0.5249 0.1580 0.9781 -0.3514 -0.5499 -3.1766 0.5874 0.5103 -1.2280 -2.4026 0.7780
1.5738 0.1371 3.6902 3.3666 1.5703 2.7920 -2.8005 -2.5826 -3.1424 2.7225 0.5161 -3.6607 5.1890 0.4813 -1.3323 0.4453 1.4819 -0.5765 -1.1411 -3.1842 -1.1322 2.4840 -0.3078 1.4439 3.1234 -0.6826 -0.9305 -1.7762 -1.0271 0.9019 0.2474 -0.8277 -0.4437 -4.3963 2.2384 1.8007 -3.0817 2.3599 2.0589 -4.9101 1.0131 1.2156 -2.1789 1.2614 1.7701 -4.0731 -0.0032 0.9394 -2.6047 -1.7236 -2.1988 3.7472 0.5785 -2.9942 2.1366 0.7705 2.4428 2.3715 0.2101 0.0295 -1.1913 -0.8708 -0.4849 4.0776 0.1537 -1.7252 0.9283 0.3705 -0.3717 -2.6531 0.1282 1.2224 -1.6063 -2.0613 -1.3142

>  <OB_ATOM_TYPES> (1mncA1)
C.3 C.3 C.2 O.2 O.2 O.2 O.2 C.3 C.3 C.3 N.am C.ar C.ar C.ar C.ar C.ar N.am N.am C.3 C.3 C.3 C.2 C.2 C.ar C.2

>  <ENSEMBLE_RMSD> (1mncA1)
1.093 1.182 1.266 1.295 1.440 1.489 1.520 1.566 1.583 1.635 1.687 1.692 1.725 1.728 1.795 1.805 1.831 1.907 1.933 1.937 1.956 1.971 2.026 2.029 2.031 2.037 2.055 2.055 2.086 2.127 2.167 2.251 2.288 2.364 2.413 2.662 2.680 2.693 2.703 2.738 2.811 2.843 2.845 2.907 2.986 3.016 3.082 3.150 3.161 3.199

$$$$
