
 OpenBabel03071213D

 34 37  0  0  0  0  0  0  0  0999 V2000
   -2.9770    6.9470   33.5190 C   0  0  0  0  0
   -5.1880    9.9610   19.8880 N   0  0  0  0  0
   -5.5360    1.4380   24.8630 O   0  0  0  0  0
   -1.2650    8.5190   33.1860 N   0  0  0  0  0
   -3.0270   10.8440   19.2620 N   0  0  0  0  0
   -3.6990    0.1020   24.3930 O   0  0  0  0  0
   -2.8760    5.6810   30.0800 C   0  0  0  0  0
   -0.6290    6.9620   29.6610 C   0  0  0  0  0
   -3.3890    7.0160   30.6450 C   0  0  0  0  0
   -1.2620    8.1800   30.3630 C   0  0  0  0  0
   -4.1630    2.8870   22.6250 C   0  0  0  0  0
   -2.0140    6.2270   27.8580 O   0  0  0  0  0
   -2.0710    3.8490   21.2660 C   0  0  0  0  0
   -3.6270    5.4140   26.3340 C   0  0  0  0  0
   -1.4900    4.2240   26.5680 C   0  0  0  0  0
   -4.0290    4.4830   25.3620 C   0  0  0  0  0
   -1.8970    3.2900   25.5930 C   0  0  0  0  0
   -1.3110    4.8030   20.5280 C   0  0  0  0  0
   -1.7840    8.2620   19.3640 C   0  0  0  0  0
   -1.1970    7.0190   19.5920 C   0  0  0  0  0
   -4.0900    5.2030   21.6680 C   0  0  0  0  0
   -3.8020    7.5630   20.5790 C   0  0  0  0  0
   -1.6330    5.8800   29.1690 C   0  0  0  0  0
   -3.5700    2.3870   23.9460 C   0  0  0  0  0
   -2.2610    7.6740   31.2900 N   0  0  0  0  0
   -2.1170    7.7750   32.6020 C   0  0  0  0  0
   -3.7550    9.8640   19.6430 C   0  0  0  0  0
   -4.3500    1.2100   24.4570 C   0  0  0  0  0
   -3.4290    4.0210   21.8140 C   0  0  0  0  0
   -2.3610    5.2760   26.9230 C   0  0  0  0  0
   -3.1640    3.4260   24.9990 C   0  0  0  0  0
   -3.0880    8.5380   19.8600 C   0  0  0  0  0
   -1.9010    6.0310   20.3120 C   0  0  0  0  0
   -3.2350    6.2770   20.8330 C   0  0  0  0  0
  1 26  1  0  0  0
  2 27  1  0  0  0
  3 28  1  0  0  0
  4 26  2  0  0  0
  5 27  2  0  0  0
  6 28  2  0  0  0
  7  9  1  0  0  0
  7 23  1  0  0  0
  8 10  1  0  0  0
  8 23  1  0  0  0
  9 25  1  0  0  0
 10 25  1  0  0  0
 11 24  1  0  0  0
 11 29  1  0  0  0
 12 23  1  0  0  0
 12 30  1  0  0  0
 13 18  2  0  0  0
 13 29  1  0  0  0
 14 16  1  0  0  0
 14 30  2  0  0  0
 15 17  2  0  0  0
 15 30  1  0  0  0
 16 31  2  0  0  0
 17 31  1  0  0  0
 18 33  1  0  0  0
 19 20  1  0  0  0
 19 32  2  0  0  0
 20 33  2  0  0  0
 21 29  2  0  0  0
 21 34  1  0  0  0
 22 32  1  0  0  0
 22 34  2  0  0  0
 24 28  1  0  0  0
 24 31  1  0  0  0
 25 26  1  0  0  0
 27 32  1  0  0  0
 33 34  1  0  0  0
M  END
>  <MOLID> (1mtsA1)
1mtsA1

>  <SMILES_CANONICAL> (1mtsA1)
CC(=N)N1CCC(CC1)Oc1ccc(cc1)[C@@H](C(=O)O)Cc1ccc2c(c1)cc(cc2)C(=N)N	

>  <FINGERPRINT> (1mtsA1)
0000010000000000000000000000000000000001000000000000000000001000001000000001000000000001000010000000000000000001000001100000000000000000000000000001000001000001000000100000000000000000000000000000001000000100000000000000000000100000000000000001000000000000000000000000000000001011000000000000000000001000000010001100001100001000001100000000000000000000010100000000000110010000000000000000010110000000100010000000001000000000000000000000000000000000010000010000010000000000000000010000000000011000001000000000100000001000001000000000000000000000000000100000000000000000000000000000000011000000000000000000100000000000000000100000001000000001000000000000000000000001000000000001100000010000101010100000100000000001000000000000000011000000000000000101000000000000000100000000000000000000000010000000000110000000000000000000000000000000010000000001001000000000000000000001000000000000000000000000000000000000000000000000001000011000000000000000011000000000000000101100000000000100001000000000000000000000000000000000011101000000

>  <MACCS166> (1mtsA1)
000000000000000000000000010000000000010000100000010000000000000000000000001111000001110001100000111000001001001010010111111011101011000111111110111110111111111110111000

>  <OB_MW> (1mtsA1)
458.232

>  <OB_logP> (1mtsA1)
5.2128

>  <OB_PSA> (1mtsA1)
123.49

>  <OB_MR> (1mtsA1)
139.673

>  <OB_ATOMIC_CHARGES> (1mtsA1)
0.1348504077 0.2047061673 -0.2452917858 0.1878833852 0.2047061673 -0.2452917858 0.0943706446 0.0943706446 0.205866675 0.205866675 0.0420145664 -0.4788815556 -0.0042430341 0.0365857977 0.0365857977 -0.0006187107 -0.0006187107 -0.0003222348 0.0079924041 0.0002550535 -0.0042397303 0.0079825047 0.1741952941 0.1299377823 -0.1902574632 0.3531394181 0.4766083983 0.3686722338 -0.0213028324 0.1383590922 -0.011284944 0.0974773452 -1.33042e-05 -6.03634e-05

>  <MCT_HBD> (1mtsA1)
4

>  <MCT_HBA> (1mtsA1)
7

>  <ENSEMBLE_TOTAL> (1mtsA1)
50

>  <ENSEMBLE_COORDS> (1mtsA1)
-0.3414 1.3982 8.6446 -1.4473 4.8601 -4.2372 -1.0127 -5.5871 -0.8675 -0.4379 3.4733 7.4957 -0.7740 4.6965 -6.4752 -2.5435 -4.2692 0.1911 1.2918 1.7810 3.9933 1.6921 -0.2766 5.2493 0.2570 2.2140 5.0112 0.7046 0.1719 6.3157 -1.5432 -2.5120 -2.0510 2.0446 -0.1928 2.8428 0.3797 -1.9865 -3.6175 -0.0169 -0.6430 1.6556 1.9415 -2.0262 1.3116 -0.7278 -1.4553 0.6891 1.2964 -2.7465 0.3745 1.0884 -1.1678 -4.4193 0.7766 2.3978 -5.6396 1.2858 1.0524 -5.4296 -1.3272 -0.3054 -3.1072 -1.1132 1.8587 -4.2126 1.2409 0.2725 3.9147 -0.6958 -3.2743 -1.0465 0.5345 1.6280 6.3241 -0.0777 2.2292 7.4190 -0.8760 4.1661 -5.2875 -1.5287 -4.3941 -0.4783 -0.8236 -1.5419 -2.9219 1.2517 -0.9476 2.0008 -0.0971 -2.4619 0.0539 -0.3851 2.7744 -5.0736 0.6180 0.1914 -4.6385 -0.6347 0.6226 -3.9843
0.4899 2.7302 8.2395 -0.3083 5.0313 -6.2439 -0.2544 -5.6683 -1.0633 2.0525 3.5772 6.6615 -2.2858 4.0865 -5.4297 -2.3640 -4.8591 -0.7615 -0.4599 0.2209 5.5717 1.4228 0.9849 4.1372 0.4786 0.2533 6.7639 2.3200 1.0011 5.3585 -1.0585 -2.7583 -2.4774 -0.5992 0.2096 3.1914 1.1095 -1.6542 -3.1946 -1.8030 -0.9984 1.5656 0.5146 -1.5663 1.9491 -1.7855 -1.8452 0.3877 0.5283 -2.3648 0.8663 1.8264 -0.6406 -3.7181 1.0665 2.7557 -5.1920 1.7947 1.5911 -4.7196 -1.0417 -0.5173 -3.4732 -1.0040 1.6827 -4.5250 0.2969 -0.0288 4.2779 -0.5086 -3.3429 -1.1881 1.5205 1.2483 6.5498 1.4094 2.5274 7.0677 -0.9940 4.0126 -5.6074 -1.1727 -4.6757 -0.9652 -0.3391 -1.5808 -3.0352 -0.7075 -0.8707 2.3381 -0.6594 -2.4943 0.0328 -0.2765 2.7994 -5.1078 1.1317 0.5497 -4.1838 -0.3402 0.6038 -4.0727
1.7933 3.2145 7.5958 -1.7149 4.8101 -3.8645 -0.9827 -5.8036 -1.3501 -0.0378 4.1889 6.4319 -0.5100 5.0398 -5.8592 -2.5608 -4.5907 -0.2414 0.0840 1.0827 3.8679 1.5883 -0.1177 5.4592 -0.6194 1.7088 5.0493 0.9117 0.6173 6.6054 -1.4084 -2.6628 -2.2849 1.4978 -0.6890 3.1483 0.6206 -1.8957 -3.6038 -0.4627 -1.2606 1.8593 1.6621 -2.3420 1.4585 -1.0007 -1.9496 0.7038 1.1788 -2.9443 0.3569 1.3311 -0.9775 -4.2877 0.9155 2.6714 -5.1847 1.4772 1.3365 -5.0712 -1.2247 -0.3628 -3.1097 -1.0632 1.8973 -4.0118 0.6813 -0.2669 4.2440 -0.6458 -3.4853 -1.2613 0.3477 1.8620 6.1167 0.6198 3.0959 6.6661 -0.8542 4.3179 -4.8278 -1.5137 -4.6528 -0.8689 -0.6568 -1.5775 -2.9737 0.8054 -1.4840 2.2627 -0.2106 -2.7525 -0.0352 -0.3130 2.9334 -4.7016 0.7951 0.3674 -4.4333 -0.5303 0.6716 -3.8551
-0.4959 3.8791 7.0715 0.5408 5.0672 -5.6371 -1.8010 -4.8413 -0.2994 1.6880 3.2133 7.7305 -0.9193 4.7764 -3.8319 0.1177 -5.5494 -1.2983 -0.4099 1.0360 4.5422 1.7575 0.1996 5.4437 -0.8874 1.2508 5.9626 1.2439 0.4711 6.8462 -1.4477 -2.5859 -2.0789 1.2053 0.0111 3.1430 -0.4536 -2.2253 -4.3615 -0.5481 -1.2608 2.1009 1.7401 -1.4291 1.3407 -0.9557 -2.0437 0.9490 1.3567 -2.1028 0.2409 -0.0461 -1.4620 -5.3944 0.2289 2.2413 -6.0999 0.2878 0.7992 -6.2664 -0.9611 -0.3149 -2.9119 -0.5519 1.9073 -3.8268 0.6341 -0.0683 4.4529 -0.3583 -3.1872 -1.2143 0.2514 1.5345 6.8193 0.5660 2.8231 7.2117 -0.1906 4.2605 -4.7847 -0.6269 -4.6443 -0.9475 -0.9137 -1.6477 -3.1034 0.7564 -1.0013 2.3258 -0.0457 -2.4374 0.0364 -0.1583 2.7739 -4.9258 -0.0759 -0.0140 -5.2574 -0.5275 0.5710 -3.9778
0.6468 3.1742 8.6937 -0.1317 4.7774 -7.0384 -2.1477 -4.2726 -0.2098 1.6185 1.0823 9.2710 -2.0638 4.3273 -5.7953 -0.2240 -5.2716 -0.9013 0.3377 1.8116 4.9004 1.0734 -0.4596 5.6179 -0.3155 2.0056 6.2531 0.3975 -0.2265 6.9575 -1.3566 -2.2406 -2.0882 1.1954 0.2696 3.3358 0.4000 -1.9912 -3.9062 -0.6406 -0.7680 2.1419 1.6602 -1.0991 1.4676 -1.0537 -1.5641 0.9970 1.2769 -1.8004 0.3868 1.0056 -1.3262 -4.9100 0.6195 2.0518 -6.5639 1.1159 0.7258 -6.2391 -1.1901 -0.1909 -3.4302 -1.0501 1.8107 -4.8205 0.3974 0.3423 4.5160 -0.4291 -2.8734 -1.0701 0.3796 1.1979 7.2375 0.9043 1.7229 8.3993 -0.9010 3.9417 -6.2479 -0.8912 -4.2634 -0.7186 -0.6920 -1.4074 -3.1308 0.6710 -0.5901 2.4030 -0.1348 -2.0601 0.1440 -0.4192 2.5746 -5.8857 0.5382 0.0069 -5.2586 -0.5971 0.5827 -4.5079
1.9029 1.3003 8.2575 -1.5709 4.5210 -3.7710 -2.1324 -4.9310 -0.8338 3.0383 2.7781 6.7840 -0.5952 4.6819 -5.8992 -0.0533 -5.6658 -0.2726 -0.8719 0.3766 5.2097 0.0895 2.0814 3.7257 0.4034 0.3697 6.0309 1.3465 2.1233 4.5752 -0.8250 -3.0496 -2.4614 -1.5319 0.4968 2.8701 1.2364 -2.0040 -3.4676 0.1178 -0.8261 1.6800 -2.2457 -1.0818 1.2223 0.3998 -1.8375 0.6856 -1.9805 -1.9908 0.2660 1.9346 -0.9783 -3.9919 1.2163 2.6151 -4.9185 1.9134 1.3549 -4.7242 -0.8462 -0.7258 -3.2714 -0.8068 1.5822 -4.0544 -0.4737 0.6822 3.7890 -0.3291 -3.4040 -1.0722 1.0918 1.6596 5.9424 2.0450 1.9546 6.9103 -0.7658 4.0307 -4.7818 -0.7946 -4.7797 -0.6743 -0.1601 -1.8676 -3.0710 -1.1554 -0.4903 1.9790 -0.6083 -2.4063 -0.0005 -0.0899 2.7156 -4.6109 1.2652 0.2959 -4.2043 -0.1641 0.4189 -3.8467
1.3003 3.6138 7.4198 0.5867 4.9258 -5.8279 -1.3909 -4.8458 -0.1545 2.2384 1.5266 8.0596 -0.5697 4.6383 -3.8153 0.6515 -5.3358 -1.0315 -0.4752 1.9046 4.6803 0.5990 -0.2552 5.4198 -0.8381 2.1700 6.1257 0.0851 0.0458 6.8129 -1.2525 -2.7135 -2.1477 0.5706 0.4864 3.1548 -0.4829 -2.3571 -4.5138 -0.9248 -1.0409 2.0218 1.3820 -0.7642 1.3355 -1.1114 -1.9390 0.8949 1.1985 -1.5643 0.2722 -0.1806 -1.5947 -5.5835 0.2111 2.1071 -6.2610 0.1769 0.6667 -6.4557 -0.7878 -0.4470 -3.0103 -0.4159 1.7693 -3.9432 -0.2203 0.4427 4.3455 -0.1668 -3.0715 -1.1544 0.0906 1.4875 7.0133 1.2273 2.1145 7.4992 -0.0241 4.1214 -4.8836 -0.2321 -4.5276 -0.7812 -0.7811 -1.7796 -3.2072 0.2928 -0.5159 2.2657 -0.0930 -2.1943 0.0487 -0.0699 2.6376 -5.0559 -0.1427 -0.1475 -5.4323 -0.4510 0.4360 -4.1109
2.0917 3.8902 6.8997 -0.2736 4.9797 -6.6474 -2.7052 -4.5912 -0.7566 0.9465 2.5033 8.4544 -2.3303 3.9597 -6.2097 -0.9075 -5.7751 -1.4958 1.5478 1.0106 4.0844 0.0272 -0.2704 5.5958 1.0834 2.2866 4.7618 -0.3636 1.0329 6.2703 -1.4371 -2.4270 -2.2127 1.0276 -1.2991 3.7026 0.7879 -1.2298 -2.6068 -0.7672 -1.4976 2.0863 1.3574 -2.6043 1.7463 -1.2244 -2.0589 0.8260 0.9177 -3.1620 0.6035 1.5370 -0.2043 -3.0537 0.9367 2.9503 -5.0432 1.6014 1.9065 -4.2837 -1.2986 -0.3495 -3.5227 -1.1562 1.7504 -4.7767 0.4726 -0.0620 4.1548 -0.7231 -3.3777 -1.2658 0.7293 1.9796 6.1360 1.1875 2.7273 7.2009 -1.0316 3.9739 -6.0742 -1.4270 -4.7096 -1.1924 -0.6554 -1.3020 -2.8143 0.5050 -1.6901 2.4920 -0.4160 -2.8575 0.1010 -0.3852 2.8769 -5.2869 0.8991 0.8610 -3.8091 -0.5538 0.7792 -4.0641
1.7313 1.3304 8.4908 -0.5027 4.8011 -6.0518 0.2236 -5.5108 -0.3503 3.1412 2.4686 6.9526 -1.6356 4.3999 -4.0405 -1.9901 -5.0094 -0.5611 -0.8910 0.3712 5.2900 0.1272 2.0998 3.8828 0.3531 0.3378 6.1570 1.3474 2.1282 4.7823 -0.8502 -2.9965 -2.4092 -1.4737 0.5538 2.9358 1.1590 -2.0390 -3.5946 0.1639 -0.7944 1.7563 -2.1958 -0.9775 1.2480 0.4364 -1.7940 0.7461 -1.9383 -1.8768 0.2800 1.8296 -1.0594 -4.2315 1.1215 2.5152 -5.2392 1.7978 1.2407 -5.0659 -0.8507 -0.6809 -3.2388 -0.8194 1.5936 -4.1089 -0.4388 0.6999 3.8896 -0.2968 -3.3313 -1.0367 1.0521 1.6254 6.1284 2.0155 1.8444 7.1066 -0.7872 4.0113 -4.9536 -0.8143 -4.6817 -0.6213 -0.1881 -1.8418 -3.0721 -1.1052 -0.4298 2.0377 -0.5725 -2.3245 0.0306 -0.1357 2.6805 -4.7881 1.1807 0.2280 -4.4289 -0.1942 0.4178 -3.9222
1.6336 3.4537 8.3128 -2.4449 4.0997 -6.9279 -2.2629 -3.9012 -0.7376 0.6536 1.7923 9.7013 -0.3976 4.4441 -8.0048 -0.3859 -4.7291 -1.7237 1.3781 0.9295 5.0929 0.2721 -0.8214 6.4764 0.7830 1.9804 6.0139 -0.2600 0.2676 7.3904 -1.2235 -1.3847 -1.7502 1.1595 -1.3469 4.3391 0.5670 -1.4063 -3.5833 -0.6235 -1.3484 2.6919 1.6067 -2.0986 2.1338 -1.0264 -1.6380 1.3230 1.2227 -2.4080 0.8821 1.1592 -0.9110 -4.6876 0.5519 1.9735 -7.0524 1.1481 0.8044 -6.4309 -1.1988 0.2832 -3.5523 -1.1554 1.9677 -5.3275 0.4956 -0.3090 5.0609 -0.4150 -2.4280 -1.0010 0.6417 1.4078 7.3441 0.9135 2.1446 8.4808 -1.1349 3.7415 -7.1878 -0.9905 -3.8069 -1.1931 -0.6187 -0.7966 -2.9864 0.6655 -1.4942 3.0637 -0.1400 -2.1411 0.4394 -0.5471 2.5398 -6.5204 0.5938 0.2648 -5.3295 -0.6206 0.8749 -4.7500
0.4851 2.9381 8.9852 -1.9131 4.4753 -6.0957 -1.4967 -4.5482 -0.9058 2.0618 1.1918 9.3215 0.0005 4.5883 -7.4353 0.7288 -4.6648 -1.3779 1.2002 -0.4780 5.7343 -0.5421 1.2927 5.4829 2.0725 0.5143 6.4773 0.3784 2.2589 6.2016 -1.2837 -1.9338 -2.0331 -0.6661 -0.7692 4.3025 0.3860 -1.8904 -3.9342 0.6981 -1.1102 2.3395 -1.6934 -1.4907 2.2947 0.7637 -1.5663 0.9647 -1.6226 -1.9682 1.0398 0.9539 -1.3347 -5.0205 0.6286 1.9293 -6.8778 1.0714 0.6020 -6.4985 -1.0506 0.0407 -3.4624 -0.9098 1.9209 -5.0017 0.2543 0.2170 4.7665 -0.2895 -2.5101 -1.0539 1.2305 1.5142 7.1096 1.3244 1.8096 8.4532 -0.7468 3.9265 -6.5940 -0.2717 -4.0101 -1.1187 -0.6209 -1.1930 -3.1380 -0.4945 -1.0091 2.9612 -0.3481 -1.9943 0.3373 -0.3243 2.5602 -6.1672 0.5333 -0.0043 -5.4258 -0.4975 0.6957 -4.6315
-1.7093 2.4682 7.0801 -0.1859 5.2815 -5.0812 -2.0465 -4.8478 -0.2057 -0.4944 4.2576 6.0972 0.4904 4.6854 -2.9187 -0.2088 -5.7145 -1.2336 1.9004 1.5220 3.8518 1.2279 -0.2438 5.4504 1.4461 2.4874 4.9341 0.3531 0.7077 6.2384 -1.5817 -2.5656 -1.8259 2.0579 -0.8166 3.2860 -0.9171 -2.0861 -4.2086 -0.0284 -1.4245 2.1936 2.1104 -2.1431 1.3160 -0.6759 -2.0685 1.0645 1.5085 -2.7616 0.2845 -0.5912 -1.2672 -5.2288 0.1384 2.4247 -5.6261 -0.0437 1.0150 -5.9328 -0.9972 -0.2858 -2.5496 -0.5327 1.9712 -3.3379 1.2859 0.1454 3.9926 -0.4728 -3.3204 -1.1194 0.2416 2.0267 5.6196 -0.5800 2.9702 6.2217 0.0776 4.3368 -4.1070 -0.8694 -4.7508 -0.8709 -1.0929 -1.5967 -2.8446 1.3183 -1.4038 2.2845 0.0611 -2.7002 0.1292 -0.1181 2.8854 -4.3878 -0.4194 0.1546 -4.9676 -0.6522 0.6572 -3.5977
1.6684 3.4549 8.3111 -0.5977 4.2025 -8.3890 -2.2812 -3.8896 -0.7200 0.6873 1.7939 9.6989 -2.1442 4.3417 -6.6413 -0.4100 -4.7236 -1.7117 1.3938 0.9257 5.0853 0.2890 -0.8197 6.4785 0.8124 1.9795 6.0117 -0.2318 0.2726 7.3936 -1.2409 -1.3749 -1.7365 1.1616 -1.3515 4.3402 0.5401 -1.4097 -3.5749 -0.6251 -1.3447 2.6989 1.6041 -2.0936 2.1322 -1.0321 -1.6323 1.3315 1.2156 -2.4027 0.8820 1.1324 -0.9198 -4.6809 0.5512 1.9749 -7.0348 1.1352 0.7985 -6.4179 -1.2232 0.2840 -3.5480 -1.1895 1.9476 -5.3443 0.5055 -0.3090 5.0619 -0.4311 -2.4211 -0.9931 0.6766 1.4073 7.3426 0.9479 2.1460 8.4785 -1.1325 3.7351 -7.2011 -1.0110 -3.7984 -1.1821 -0.6410 -0.7924 -2.9773 0.6650 -1.4922 3.0657 -0.1485 -2.1350 0.4452 -0.5680 2.5243 -6.5289 0.5702 0.2564 -5.3235 -0.6485 0.8655 -4.7525
0.6033 4.6206 6.0646 -0.5019 4.8849 -2.7001 -2.1186 -4.9677 -0.4057 -1.2545 3.3837 6.8817 0.5555 5.2418 -4.7536 -0.3140 -5.7995 -1.5180 1.9230 1.1335 4.0008 0.4783 -0.2705 5.3857 1.0826 2.3487 4.3485 -0.3450 0.9404 5.7761 -1.5854 -2.6106 -1.9383 1.6743 -1.2351 3.5302 -0.5960 -2.0538 -4.1788 -0.2794 -1.6652 2.1733 1.9229 -2.3382 1.4195 -0.8372 -2.2259 0.9607 1.3975 -2.8953 0.3115 -0.1458 -1.2076 -5.1250 0.3272 2.5288 -5.4336 0.3082 1.1117 -5.7525 -0.9984 -0.2855 -2.5278 -0.4781 1.9993 -3.2077 1.0069 -0.0674 3.9832 -0.5132 -3.4145 -1.2277 0.4172 2.1862 5.6447 -0.1432 3.3240 6.2161 0.0152 4.4195 -3.8955 -0.9429 -4.8499 -1.0710 -1.0205 -1.5907 -2.8623 1.0546 -1.6659 2.3736 -0.0392 -2.8399 0.0657 -0.0359 2.9570 -4.2096 -0.0976 0.2167 -4.8327 -0.5199 0.6863 -3.4963
2.4914 3.9069 6.0014 -0.5450 5.0627 -5.5876 -1.5180 -5.2569 -0.8870 2.5068 2.3163 7.7666 -0.7264 4.7428 -3.2725 0.7504 -5.4357 -0.8419 -0.2180 -0.1964 5.6264 -0.7170 1.7142 4.1854 1.0780 0.4567 6.0621 0.5457 2.4126 4.6516 -1.0719 -2.8631 -2.3576 -1.5508 -0.4898 3.6321 0.6221 -2.1231 -4.0644 0.1101 -1.1086 1.9633 -2.1937 -1.8272 1.7669 0.4107 -1.8233 0.7402 -1.9145 -2.4873 0.6278 1.2434 -1.2079 -4.8337 0.9585 2.5199 -5.4028 1.4012 1.1393 -5.5077 -0.8908 -0.4953 -3.0300 -0.6871 1.8222 -3.7575 -0.4687 0.2246 4.1993 -0.2527 -3.2621 -1.1478 1.0006 1.9160 5.9536 1.9808 2.6371 6.6254 -0.4517 4.2718 -4.4582 -0.2606 -4.7530 -0.9350 -0.4431 -1.7615 -3.1358 -1.1420 -1.1108 2.4692 -0.5543 -2.5125 0.1034 -0.0466 2.8428 -4.5684 0.8249 0.1834 -4.7548 -0.2717 0.5452 -3.8321
0.5272 1.3872 9.7253 -0.4292 4.9348 -5.2551 -1.5648 -4.3354 -0.4644 0.3648 3.4485 8.5513 -0.2810 4.5133 -7.5498 0.3425 -4.8108 -1.6137 0.9242 1.4045 4.9006 0.6736 -0.7139 6.2029 0.1450 2.1157 5.9926 -0.0999 0.0616 7.2489 -1.3101 -1.7719 -1.7678 1.5334 -0.7369 4.0137 -0.6501 -2.0709 -4.1841 2.0065 -1.3479 1.7895 -0.3116 -1.2379 2.4719 1.5728 -1.8340 0.4953 -0.7155 -1.6738 1.2626 -0.3767 -1.6243 -5.4253 -0.0940 1.7502 -7.1018 -0.0970 0.3132 -6.8911 -0.9298 0.1712 -3.2370 -0.6787 2.0540 -4.7673 0.5670 -0.0727 4.8278 -0.1767 -2.5148 -1.0953 0.3790 1.4360 7.2602 0.3987 2.1577 8.4401 -0.3613 4.0635 -6.3270 -0.4096 -4.0013 -1.0882 -0.9090 -1.1654 -3.0681 1.1064 -1.0223 2.7349 0.2631 -1.9998 0.2311 -0.3853 2.5874 -6.0881 -0.3655 -0.1913 -5.6725 -0.6587 0.7264 -4.5523
-0.7943 3.4463 7.7735 1.0761 4.5753 -5.0144 0.3054 -4.8623 -1.5685 -0.9899 1.3532 8.8782 -0.5270 4.7462 -6.7163 -1.4393 -4.5646 -0.1313 1.4438 1.5900 4.6867 1.4662 -0.5454 5.8922 0.2782 2.0624 5.5335 0.3450 -0.0555 6.7911 -1.4463 -1.9124 -1.5234 2.2319 -0.4253 3.5910 -1.3435 -2.0416 -4.0142 0.1936 -1.0278 2.4170 2.3616 -1.3860 1.4000 -0.4259 -1.6101 1.2497 1.7839 -1.9340 0.3133 -1.1905 -1.5357 -5.2516 -0.4391 1.8464 -6.7442 -0.7493 0.4342 -6.6188 -0.8983 0.0898 -2.8838 -0.4431 2.0201 -4.3182 1.3111 0.0950 4.5341 -0.2199 -2.6493 -1.0189 0.2805 1.4095 6.8450 -0.5015 1.9724 7.8488 0.0883 4.0327 -5.8136 -0.5428 -4.1081 -0.8248 -1.1870 -1.2257 -2.8164 1.5355 -0.9114 2.5001 0.3341 -2.0673 0.2369 -0.2986 2.6047 -5.6417 -0.8785 -0.1247 -5.4016 -0.7204 0.7088 -4.1894
0.4637 3.6650 7.3197 -2.4739 3.0132 -7.7637 -1.1575 -4.7339 -1.8728 -0.2463 1.9046 8.7489 -0.2822 3.1696 -8.5832 -2.6750 -3.9925 -0.3412 1.8326 0.7789 4.5183 1.5166 -1.0316 6.1281 0.9206 1.6760 5.3297 0.6577 -0.1265 6.9909 -1.6057 -1.4070 -1.5181 1.9954 -1.5335 3.8109 0.3600 0.1037 -1.9358 -0.1183 -1.5208 2.6077 1.8843 -2.4389 1.6041 -0.8304 -1.7955 1.3770 1.2147 -2.7215 0.4709 1.0313 1.0528 -2.6122 0.5198 2.9831 -5.8105 1.0913 2.5140 -4.5621 -1.3667 -0.1730 -3.6503 -1.1885 1.2615 -5.6264 1.3302 -0.6363 4.6829 -0.8002 -2.5899 -1.0105 0.9230 1.2959 6.7449 0.3604 2.1991 7.6415 -1.1073 2.8745 -7.6163 -1.6624 -3.8232 -1.0033 -0.8531 -0.5219 -2.4529 1.2011 -1.7878 2.7101 -0.1950 -2.3740 0.3392 -0.5524 2.3613 -6.3337 0.5112 1.5020 -3.8913 -0.6990 0.8526 -4.4405
-0.4136 3.4484 8.2421 1.1126 4.3617 -6.1656 0.8939 -3.8854 -2.2095 0.6801 1.9436 9.7208 -0.4145 4.3039 -7.9402 -0.7838 -4.2750 -0.7162 0.4053 0.9373 5.1023 1.3928 -0.7704 6.6267 -0.4666 1.4019 6.2528 0.5513 -0.2111 7.7592 -1.1595 -1.3468 -1.5580 1.7138 -0.9217 4.2867 -1.5959 -1.8139 -3.9848 -0.1039 -1.5163 2.7818 2.1582 -1.1925 1.9796 -0.5119 -1.7790 1.4106 1.7816 -1.4551 0.7155 -1.6926 -1.4783 -5.2856 -0.7962 1.5255 -7.3923 -1.2759 0.2122 -7.0002 -0.6617 0.3456 -3.3009 -0.3620 2.0192 -5.0547 0.7502 -0.5360 5.2669 0.0941 -2.0248 -1.0354 0.2607 1.1898 7.4944 0.2020 2.1062 8.5271 0.1139 3.7385 -6.8896 -0.0030 -3.5108 -1.2633 -1.0552 -0.9032 -2.9792 1.1774 -1.1910 3.0525 0.3889 -1.7486 0.4062 -0.3877 2.4025 -6.4565 -1.2504 -0.1587 -5.7066 -0.7422 0.7823 -4.6864
-0.1932 3.6786 7.5061 1.8734 2.1589 -7.0483 0.5663 -5.3556 -1.8437 1.0684 2.0796 8.7332 1.3710 4.2793 -6.1883 -1.2110 -5.1659 -0.4303 0.3745 1.4999 4.0892 1.5814 -0.2800 5.3564 -0.4010 1.8209 5.3534 0.8000 0.1083 6.5978 -1.4971 -2.6864 -2.0669 1.6892 -0.1748 2.9856 -2.6436 -0.5005 -2.2656 0.0550 -1.7565 2.1365 1.8122 -0.8764 0.7226 -0.4341 -2.5130 0.9992 1.3946 -1.6260 -0.3136 -2.8255 0.7536 -2.7200 -0.9344 3.1454 -4.9490 -1.9455 2.5928 -4.0651 -0.5484 -0.8456 -3.4870 0.2781 1.0452 -4.8000 0.8095 0.0439 4.0872 -0.2110 -3.1815 -1.4266 0.4359 1.5130 6.5023 0.4709 2.3341 7.6115 1.1585 2.9920 -6.2081 -0.3629 -4.6556 -1.1480 -1.4846 -1.3077 -2.6329 1.0990 -0.9151 1.9896 0.2069 -2.4599 -0.1856 0.1389 2.4079 -5.2889 -1.8296 1.3326 -3.6060 -0.6617 0.5143 -3.9967
-0.0207 0.5151 9.4724 -1.9752 1.4927 -8.9013 -0.3611 -4.3294 -1.6353 0.6545 2.5833 8.5145 -0.0406 2.7616 -9.2391 -2.3297 -3.8624 -0.5839 1.7195 -1.2680 5.9105 1.6808 1.1720 5.2114 1.2498 -0.8251 7.2802 2.3450 1.2731 6.5665 -1.5964 -1.1680 -1.7403 0.0909 -0.3907 4.3687 0.2031 0.5179 -2.2089 1.0592 -1.0486 2.2372 -1.3390 -0.9909 2.5753 0.8271 -1.4972 0.8781 -1.5534 -1.3895 1.3094 0.8524 1.4121 -2.9747 0.5728 2.6609 -6.5166 1.0196 2.4963 -5.1478 -1.2545 -0.2656 -4.0175 -0.9919 0.8327 -6.1886 1.4403 -0.2684 4.8048 -0.6886 -2.1105 -0.9762 1.5252 0.5792 7.5464 0.7542 1.2927 8.4455 -0.7986 2.0557 -8.4438 -1.2433 -3.5071 -1.0153 -0.8588 -0.3360 -2.7306 0.0182 -0.8171 3.0641 -0.4291 -1.6771 0.4274 -0.3773 1.8539 -7.0243 0.4553 1.5618 -4.3628 -0.6098 0.6909 -4.9054
1.4622 1.5247 8.8176 2.6170 2.9481 -5.9550 1.6353 -4.9984 -1.3244 0.8962 3.6328 7.8759 1.2182 4.7669 -5.4875 -0.5178 -5.4137 -0.7009 0.3352 -0.3293 5.3607 -0.1335 1.8541 4.2570 1.3778 0.3667 6.2159 0.8869 2.5103 5.1717 -0.8450 -3.0214 -2.5048 -0.9208 -0.1907 3.3228 -2.4102 -1.2511 -3.2418 0.6374 -0.8052 1.5637 -1.5668 -1.7962 1.6941 0.8775 -1.5872 0.3642 -1.3536 -2.4984 0.5654 -2.7631 -0.0717 -3.7866 -0.9517 2.9296 -5.1964 -2.0156 2.0431 -4.7565 -0.0054 -0.8788 -3.5142 0.6663 1.2636 -4.4834 0.1814 0.3830 4.0269 0.1645 -3.1765 -1.3823 0.9720 1.7496 6.4085 1.1032 2.3769 7.6317 1.4167 3.4776 -5.5187 0.3500 -4.6407 -1.0792 -1.0179 -1.6557 -3.0773 -0.5254 -0.9341 2.2349 -0.0755 -2.4023 -0.1284 0.3350 2.5612 -5.0509 -1.7215 0.8388 -4.2311 -0.3091 0.4242 -4.0916
-0.4598 2.1582 9.8058 -1.1786 3.4236 -9.2297 -1.4709 -3.2837 -0.5453 1.0329 0.4244 10.4522 -0.0979 4.3407 -7.3600 0.5538 -3.8490 -1.4176 0.3136 1.2336 5.8412 1.6154 -0.7755 6.5149 -0.4501 1.1444 7.1460 0.8288 -0.8161 7.8139 -0.9629 -0.7178 -1.6649 1.6472 0.0615 4.2758 -0.7288 -1.7924 -3.9473 -0.1774 -0.4377 2.7604 2.1276 -0.7792 2.1210 -0.5727 -0.8172 1.4112 1.7678 -1.0607 0.8564 -0.6530 -1.7700 -5.2912 -0.5050 0.8917 -7.9629 -0.5237 -0.4045 -7.3106 -0.7943 0.6430 -3.7187 -0.7914 1.9444 -5.7917 0.7948 -0.1406 5.4015 0.0879 -1.5308 -0.9269 0.4056 0.5345 8.1521 0.3709 0.9510 9.4694 -0.6387 3.3159 -7.9604 -0.2187 -3.0065 -0.9819 -0.7515 -0.5745 -3.1386 1.1213 -0.4821 3.1267 0.3609 -1.1057 0.4808 -0.6652 2.0136 -7.2390 -0.6396 -0.4870 -5.9726 -0.7481 0.7505 -5.1699
0.4644 3.7036 7.5835 0.9330 4.5043 -6.8256 -0.7083 -5.2291 -1.0835 1.3872 1.9050 8.8349 1.9201 2.4142 -7.1770 1.4943 -4.9639 -1.5900 0.7029 -0.5876 5.6816 0.0436 1.4382 4.3797 1.6977 0.2614 6.4486 1.0594 2.2440 5.1662 -1.0611 -2.7203 -2.3668 -0.6373 -0.7449 3.7243 -2.2285 -0.5250 -2.2978 0.8201 -1.1343 1.8162 -1.4125 -2.0670 1.9224 0.9709 -1.7329 0.5031 -1.2702 -2.6237 0.7071 -2.4601 0.7457 -2.6749 -0.9016 3.2007 -5.0760 -1.7865 2.6167 -4.0862 -0.2779 -0.8049 -3.7576 0.3673 1.1313 -5.1084 0.4514 -0.0230 4.2942 0.0847 -3.0125 -1.4163 1.2316 1.6359 6.4724 1.0752 2.3322 7.6516 1.0361 3.1506 -6.5596 0.3884 -4.4873 -1.3746 -1.1211 -1.3086 -2.8338 -0.3290 -1.2930 2.5045 -0.0319 -2.4494 -0.0402 0.1405 2.4976 -5.5569 -1.5849 1.3568 -3.6603 -0.4577 0.5693 -4.2047
2.0803 2.8784 8.5743 0.1514 3.3722 -8.9324 -1.5342 -4.4793 -0.9763 1.7424 0.8133 9.7009 0.1551 1.0361 -9.0449 0.7030 -4.5246 -1.3915 0.0631 -0.8368 6.2436 0.7080 1.2681 5.0658 1.1983 -0.5896 7.2216 1.8214 1.4570 6.0789 -1.3784 -1.8410 -2.1201 -0.8629 -0.2357 4.1241 -0.7111 0.5740 -2.0626 -1.8792 -1.2791 2.2648 0.5295 -1.0858 2.2917 -1.7941 -1.7987 0.9113 0.6103 -1.5802 1.0425 -0.4022 1.7616 -2.6133 0.1774 3.0879 -6.0932 0.0495 3.0180 -4.6508 -0.8152 -0.6096 -4.2039 -0.4071 0.7329 -6.2183 0.3426 -0.1996 4.8909 -0.3946 -2.3947 -1.1025 1.4167 0.8451 7.3349 1.7465 1.4126 8.5515 0.0888 2.1272 -8.3312 -0.3255 -3.8985 -1.1745 -0.8917 -0.6372 -2.8562 -0.7654 -0.9532 2.9481 -0.5967 -1.9405 0.3088 -0.0574 1.9995 -6.8490 -0.2724 1.8552 -4.0562 -0.4964 0.6451 -4.8767
1.4584 0.8012 9.3947 0.6881 3.6909 -8.0071 -1.4523 -4.6476 -0.4135 0.3955 2.8233 8.7316 1.0062 1.3866 -8.2565 0.4602 -5.0578 -1.5771 0.4153 1.5895 4.7430 1.3447 -0.5918 5.5418 -0.2170 1.7767 6.1062 0.6729 -0.3409 6.8781 -1.5098 -2.2439 -1.9877 1.4730 0.0993 3.2672 -1.9503 0.1894 -1.9696 1.9252 -1.0272 1.2572 -0.3353 -1.1089 2.1170 1.4702 -1.7229 0.0730 -0.7528 -1.7819 1.0263 -1.9687 1.4322 -2.4806 -0.6692 3.1232 -5.5810 -1.3153 2.9013 -4.3044 -0.7298 -0.7829 -3.8645 -0.1123 0.7603 -5.6698 0.6185 0.1185 4.4093 -0.2779 -2.7794 -1.2894 0.6007 1.0956 7.0976 0.7562 1.6349 8.3597 0.5588 2.3903 -7.5518 -0.3556 -4.2721 -1.1156 -1.3182 -0.9288 -2.6585 1.0708 -0.7455 2.2565 0.1818 -2.0927 -0.0494 -0.0959 2.1005 -6.2407 -1.3375 1.6699 -3.7652 -0.6987 0.5406 -4.4771
1.8691 2.5597 9.0817 -1.3243 1.4476 -9.1124 -1.7725 -4.3537 -0.9620 1.9136 0.2689 9.7117 0.5627 2.8341 -9.0835 0.4839 -4.5702 -1.1589 0.3865 -0.8953 6.0502 0.4306 1.5048 5.3672 1.5583 -0.6147 6.9735 1.5785 1.7326 6.3353 -1.4113 -1.7291 -2.0792 -0.8240 -0.1040 4.1359 -0.2409 0.4966 -2.1423 0.5389 -0.7522 2.2368 -1.8324 -1.2311 2.2982 0.5866 -1.3399 0.9115 -1.7937 -1.7424 1.0524 0.1897 1.6223 -2.7383 0.3375 2.9606 -6.2586 0.4775 2.8548 -4.8193 -0.9318 -0.5778 -4.2298 -0.6015 0.7184 -6.2899 0.3882 0.0663 4.8728 -0.4804 -2.3612 -1.0603 1.4807 0.7678 7.4192 1.7698 1.1021 8.7284 -0.3004 2.0918 -8.4441 -0.5132 -3.8665 -1.0687 -0.7965 -0.6297 -2.8868 -0.6175 -0.7351 2.9302 -0.5313 -1.8120 0.3265 -0.1667 1.9333 -6.9661 0.0770 1.7408 -4.1805 -0.4909 0.6126 -4.9509
-0.5328 2.3355 9.6023 -0.1113 4.4769 -7.2699 0.6670 -3.7856 -1.5032 0.7980 0.5564 10.4478 -1.1488 3.4677 -9.1115 -1.3853 -3.4042 -0.5864 0.2744 1.1235 5.7541 1.6118 -0.8113 6.5797 -0.5176 1.0864 7.0441 0.7973 -0.7865 7.8617 -0.8660 -0.6984 -1.6495 1.7002 -0.0944 4.3030 -0.7156 -1.7662 -3.9412 -0.1125 -0.4728 2.7448 2.1789 -0.9712 2.1605 -0.4990 -0.8134 1.3843 1.8327 -1.2091 0.8828 -0.6885 -1.7373 -5.2867 -0.5656 0.9429 -7.9407 -0.5912 -0.3584 -7.2992 -0.7385 0.6684 -3.6964 -0.7900 1.9820 -5.7575 0.8133 -0.2569 5.4089 0.1659 -1.5634 -0.9437 0.3376 0.5735 8.1037 0.2401 1.0625 9.3930 -0.6570 3.3781 -7.9059 -0.2935 -2.9991 -0.9572 -0.6917 -0.5533 -3.1261 1.1699 -0.6126 3.1439 0.4355 -1.1555 0.4729 -0.6975 2.0625 -7.2062 -0.6762 -0.4498 -5.9596 -0.7439 0.7831 -5.1465
-0.8006 2.4836 9.0463 1.3479 3.8231 -6.9655 -1.2139 -3.6390 -0.3410 -1.1588 0.1730 9.4641 -0.5515 3.8791 -8.3375 0.6085 -3.9396 -1.6717 1.3812 1.4497 5.5415 1.5856 -0.8699 6.2900 0.2150 1.6609 6.4858 0.4626 -0.6569 7.2875 -1.1729 -0.9411 -1.3485 2.2961 -0.2320 4.0668 -1.8009 -1.6382 -3.6513 0.3087 -0.6884 2.7473 2.5188 -0.8350 1.7661 -0.2554 -1.0766 1.4752 1.9928 -1.1916 0.5793 -1.8958 -1.4910 -4.9845 -0.9632 1.1453 -7.5111 -1.4774 -0.0763 -6.9215 -0.6936 0.5237 -3.2986 -0.3167 1.8981 -5.2901 1.3434 0.0106 5.0880 0.0601 -1.7133 -0.9243 0.2877 0.7578 7.6381 -0.5567 1.0381 8.7090 0.1333 3.3128 -7.3820 -0.1282 -3.2060 -1.0267 -1.1724 -0.6346 -2.8018 1.6446 -0.5728 2.8986 0.5511 -1.3321 0.4278 -0.4202 2.0945 -6.7274 -1.3863 -0.2758 -5.5945 -0.7728 0.7599 -4.7334
1.5919 1.6491 9.1358 0.7404 3.8928 -7.6744 0.6245 -4.9925 -1.8227 -0.2394 2.9464 8.3513 1.2851 1.6306 -7.9075 -1.2024 -4.8835 -0.4641 0.0334 1.1776 4.5892 1.7944 -0.3306 5.5412 -0.5382 1.3207 5.9837 1.1621 -0.1315 6.9072 -1.4977 -2.3121 -1.9485 1.5376 0.0106 3.1995 -2.2022 0.0610 -1.9817 2.0273 -1.1447 1.2075 -0.2187 -1.2812 2.0930 1.5630 -1.8169 0.0101 -0.6444 -1.9288 0.9925 -2.2975 1.3009 -2.4931 -0.8712 3.1466 -5.4512 -1.6230 2.8460 -4.2482 -0.6917 -0.7545 -3.7351 -0.0271 0.8692 -5.4478 0.7946 -0.1286 4.4121 -0.2077 -2.8501 -1.3586 0.5451 1.1854 6.9448 0.5483 1.9489 8.0963 0.6735 2.5773 -7.2485 -0.3444 -4.3341 -1.1391 -1.3905 -0.9798 -2.6027 1.1842 -0.9027 2.2280 0.2748 -2.1897 -0.1087 -0.0980 2.2059 -6.0227 -1.5610 1.6184 -3.7030 -0.7252 0.5738 -4.3345
1.2851 1.2968 9.5572 1.3376 3.1615 -8.1910 -1.5708 -4.4516 -0.6652 0.2932 3.1496 8.4454 0.5480 0.9935 -8.6125 0.2592 -4.6635 -2.0013 0.6616 1.2192 4.7949 1.4129 -0.8069 6.0409 -0.1261 1.6373 6.0209 0.6361 -0.3201 7.2510 -1.6506 -1.8094 -1.7806 1.6915 -0.6269 3.6861 -1.9596 0.6414 -2.0262 -0.2764 -1.3188 2.4265 1.9497 -1.4417 1.4834 -0.8026 -1.7985 1.1584 1.4627 -1.8796 0.3097 -1.9163 1.8179 -2.6785 -0.5404 3.0665 -5.9638 -1.1874 3.0333 -4.6647 -0.8234 -0.6036 -3.8071 -0.1041 0.6843 -5.7609 0.7999 -0.2944 4.7468 -0.3961 -2.4688 -1.2415 0.5534 1.1311 7.2026 0.6511 1.9076 8.3398 0.6431 2.0245 -7.8177 -0.5060 -3.9669 -1.3492 -1.3973 -0.5829 -2.5863 1.0511 -1.1341 2.5825 0.0282 -2.0555 0.1281 -0.0121 1.9438 -6.4827 -1.2812 1.8768 -3.9839 -0.7136 0.6381 -4.5611
-0.7303 2.2836 9.4337 1.1258 4.0014 -6.8485 1.2092 -3.4840 -1.9901 1.1684 1.0495 10.1577 -0.4585 3.8030 -8.5626 -0.4464 -3.9128 -0.4821 -0.2160 0.9341 5.7089 1.7841 -0.3878 6.3918 -0.8299 0.6641 7.0666 1.1404 -0.6066 7.7499 -1.1577 -1.1626 -1.6353 1.4259 0.2815 4.1331 -1.6330 -1.8682 -3.9895 -0.2293 -0.7220 2.6861 2.0482 -0.3833 1.9521 -0.5599 -1.1675 1.3427 1.7252 -0.7206 0.6907 -1.7482 -1.6670 -5.3164 -0.8610 1.0963 -7.7355 -1.3478 -0.1645 -7.2030 -0.6724 0.3421 -3.5468 -0.3719 1.8171 -5.4683 0.7434 -0.1753 5.3017 0.1594 -1.6202 -1.0375 0.2381 0.4953 8.0331 0.2933 1.2045 9.2143 0.0927 3.3322 -7.4776 0.2502 -3.1227 -1.1012 -1.0732 -0.8618 -3.0923 1.0434 -0.4056 3.0046 0.3732 -1.1563 0.3687 -0.4198 2.0559 -6.9011 -1.3008 -0.4031 -5.8790 -0.7646 0.6313 -4.9690
0.5678 1.1182 9.6879 -0.4873 0.4918 -9.2905 0.4278 -4.0860 -1.6368 2.2613 2.3432 8.5561 -0.1326 2.8024 -9.3268 -1.6806 -4.1369 -0.7701 -0.2869 -0.5063 6.4650 1.5695 0.6849 5.3196 0.6680 -0.8403 7.5966 2.4836 0.3343 6.4767 -1.4840 -1.3341 -1.9107 -0.4391 0.1699 4.1783 -0.3364 0.8798 -2.1927 -1.7059 -0.7623 2.4181 0.6919 -1.0735 2.4298 -1.7315 -1.2650 1.0572 0.6683 -1.5436 1.1698 0.1097 1.9279 -2.9095 0.3470 2.8281 -6.5657 0.4457 2.9035 -5.1202 -0.9727 -0.4359 -4.1593 -0.6224 0.6131 -6.3437 0.4641 -0.3465 5.1547 -0.4874 -2.0285 -0.9991 1.6980 0.1859 7.6943 1.5705 1.2464 8.5752 -0.2629 1.6950 -8.6474 -0.6810 -3.5173 -1.1015 -0.8684 -0.3262 -2.8189 -0.5452 -0.6801 3.0952 -0.5875 -1.6138 0.4351 -0.1744 1.7360 -7.1552 0.0333 1.8735 -4.3594 -0.5203 0.6625 -5.0020
1.7908 3.4336 7.6954 -1.4866 2.0315 -8.6765 0.7541 -4.3721 -1.7884 3.3367 1.6643 8.0448 0.5291 3.2265 -8.6622 -1.4007 -4.6551 -1.0980 0.7221 -1.1407 6.1288 -0.7729 0.7131 5.6165 1.8105 -0.1753 6.5412 0.2933 1.7052 6.0399 -1.3383 -1.7148 -1.9386 -1.0091 -1.4222 4.4924 -0.0953 0.4678 -1.8745 0.4471 -1.5860 2.5662 -1.9467 -1.8792 2.3454 0.5823 -1.8476 1.1477 -1.8145 -2.1721 1.0381 0.3501 1.6200 -2.4059 0.3373 3.2300 -5.8125 0.5491 3.0103 -4.3952 -0.8685 -0.4449 -4.0128 -0.5693 0.9795 -5.9849 -0.0818 -0.4926 5.0264 -0.3613 -2.4555 -1.0478 1.2648 1.1167 6.9696 2.1717 1.9842 7.5726 -0.3705 2.5245 -8.0283 -0.4325 -3.9367 -1.2957 -0.7139 -0.5808 -2.6794 -0.7745 -1.5461 3.1380 -0.4990 -2.1574 0.4077 -0.1748 2.2487 -6.5772 0.1854 1.8449 -3.8307 -0.4145 0.7781 -4.6620
3.0100 0.0806 9.5066 -2.1440 1.6789 -9.0505 -1.9944 -3.6460 -1.1221 1.4797 1.8758 9.7982 0.0819 1.9987 -9.7083 0.2186 -3.9126 -1.5847 1.1682 -0.9267 5.9606 -0.4213 0.9919 6.1889 2.1658 -0.1511 6.7952 0.6263 1.7099 7.0200 -1.4517 -0.8536 -1.7786 -0.8133 -0.7944 4.6544 0.4895 0.5729 -2.5066 0.5128 -1.0174 2.6479 -1.9036 -1.1318 2.5712 0.5400 -1.2706 1.2212 -1.8756 -1.4246 1.2583 1.1445 1.3592 -3.3792 0.7437 2.3516 -6.9884 1.2573 2.2558 -5.6380 -1.1778 -0.1751 -4.1429 -0.9821 0.7399 -6.4113 0.2205 0.0088 5.2243 -0.5877 -1.7470 -0.9153 1.4388 0.7181 7.7085 1.9170 0.9692 8.9809 -0.7950 1.7723 -8.7678 -0.7191 -3.2072 -1.2406 -0.6910 -0.1988 -2.8839 -0.6652 -0.8765 3.2894 -0.6064 -1.4773 0.5457 -0.3187 1.6184 -7.3643 0.6555 1.4540 -4.7427 -0.5232 0.6547 -5.1462
0.0436 -0.8583 9.9471 -0.5627 3.3102 -9.0074 0.8942 -3.6209 -1.5415 -0.7654 1.3613 9.6997 0.6054 3.9848 -7.0973 -0.9371 -3.5692 -0.1813 0.5971 1.6392 5.7329 1.8284 -0.4679 6.0814 -0.3434 1.2672 6.8588 0.8836 -0.8204 7.2190 -1.1212 -0.8114 -1.3810 1.9359 0.7310 3.9809 -1.6067 -1.7520 -3.6354 2.4101 -0.1317 1.8217 0.1215 -0.1705 2.6173 1.9423 -0.6735 0.5598 -0.3045 -0.7181 1.4680 -1.6800 -1.7165 -4.9775 -1.0388 0.8414 -7.6660 -1.4079 -0.3926 -7.0019 -0.7192 0.5279 -3.4309 -0.4236 1.7790 -5.5118 1.0892 0.3746 5.0639 0.1367 -1.5052 -0.9022 0.3340 0.3959 7.8167 -0.1545 0.3772 9.1148 -0.1484 3.1079 -7.7030 -0.0574 -2.9945 -0.8041 -1.1118 -0.6252 -2.8544 1.5426 0.0789 2.8285 0.6404 -0.9712 0.3900 -0.5521 1.8774 -6.9583 -1.2881 -0.5003 -5.6671 -0.7822 0.6455 -4.8796
2.9143 0.2361 9.5855 -0.0570 2.5564 -9.6429 -2.0048 -3.6694 -1.1565 1.4172 2.0793 9.6757 -1.9538 1.3081 -9.0804 0.2053 -3.9452 -1.6296 1.1797 -0.9904 6.0294 -0.3812 0.9670 6.0836 2.1560 -0.1879 6.8646 0.6514 1.7156 6.9031 -1.4581 -0.8763 -1.7678 -0.7486 -0.9016 4.6494 0.4862 0.5435 -2.4892 0.5489 -0.9951 2.6105 -1.8510 -1.3224 2.5935 0.5598 -1.2266 1.1799 -1.8336 -1.5831 1.2744 1.1442 1.3345 -3.3542 0.7432 2.3630 -6.9483 1.2588 2.2505 -5.6015 -1.2041 -0.1611 -4.1225 -1.0272 0.8042 -6.3705 0.2772 -0.0834 5.2079 -0.5839 -1.7826 -0.9303 1.4132 0.7551 7.6888 1.8592 1.0991 8.9516 -0.8174 1.8454 -8.7302 -0.7266 -3.2377 -1.2721 -0.7047 -0.2102 -2.8697 -0.6197 -0.9774 3.2838 -0.5829 -1.5209 0.5315 -0.3531 1.6787 -7.3206 0.6452 1.4526 -4.7117 -0.5519 0.6821 -5.1149
-0.6120 -1.2892 9.5766 1.3131 3.5046 -7.4063 0.8974 -3.4365 -1.5856 -0.7156 1.0639 9.8741 -0.5334 3.3668 -8.8416 -0.8025 -3.4773 -0.0653 1.0879 1.7405 6.0595 1.6033 -0.6428 5.9527 0.0571 1.4798 7.1359 0.6118 -0.9204 7.0682 -1.1803 -0.7552 -1.4087 1.9504 0.7996 4.0305 -1.7695 -1.6908 -3.6377 0.0649 0.1212 2.6662 2.3397 -0.0677 1.8472 -0.3981 -0.4584 1.4236 1.9039 -0.5592 0.6732 -1.8664 -1.6674 -4.9789 -0.9711 0.7491 -7.7383 -1.4699 -0.4243 -7.0425 -0.7010 0.5126 -3.4894 -0.3212 1.6955 -5.5958 1.1108 0.5390 5.1446 0.1013 -1.3579 -0.8662 0.3635 0.2650 7.8927 -0.3121 0.1049 9.0989 0.1253 2.9231 -7.8060 -0.0127 -2.8574 -0.7617 -1.1626 -0.6003 -2.8852 1.3871 0.2616 2.8943 0.4820 -0.7896 0.4586 -0.4261 1.7660 -7.0452 -1.3728 -0.5078 -5.7025 -0.7721 0.6092 -4.9399
2.6162 2.5590 7.9157 1.2587 1.8226 -8.1344 1.5722 -3.9621 -2.0613 1.1845 3.8879 6.5646 1.4479 3.9881 -7.2593 -0.3710 -4.9390 -1.3772 0.8075 -0.9498 6.2480 -0.8725 0.3901 5.1214 1.6258 0.2865 6.5573 -0.0955 1.6565 5.4113 -1.3033 -2.1417 -1.9636 -0.4794 -1.9065 4.4404 -2.0871 0.2153 -2.0410 0.6909 -1.4199 2.3681 -1.2955 -2.8051 2.3842 0.7541 -1.5758 0.9289 -1.2192 -2.9723 1.0504 -2.2030 1.4434 -2.5789 -0.7135 3.2917 -5.5100 -1.5135 2.9820 -4.3403 -0.4218 -0.5472 -3.6715 0.3010 1.0873 -5.3490 0.1280 -0.7214 4.9213 -0.0619 -2.5324 -1.1895 0.8234 1.5154 6.5483 1.4702 2.6827 6.9493 0.9928 2.7685 -7.1631 0.3261 -3.9466 -1.5261 -1.1939 -0.7962 -2.5932 -0.3199 -1.9743 3.0704 -0.1532 -2.3347 0.2856 0.1789 2.3968 -5.9715 -1.4065 1.7792 -3.7467 -0.4678 0.7721 -4.2885
1.0883 2.2553 9.8782 -1.9387 1.7317 -9.9455 -2.4654 -1.6086 -0.6653 0.6347 0.0541 10.6547 -2.5046 3.2845 -8.2798 -1.1604 -3.2483 -1.5535 1.2165 0.9097 6.0079 0.7873 -1.4282 6.7433 0.4667 1.4026 7.2286 0.0555 -0.8806 7.9579 -0.3312 0.1266 -1.6025 1.5755 -0.9162 4.5408 1.1232 -0.5455 -3.5618 0.0381 -0.1097 2.8481 1.5638 -1.9300 2.4038 -0.3839 -0.1685 1.4555 1.2236 -1.9395 1.1030 1.4856 -0.5190 -4.8583 0.1143 0.9379 -8.0570 0.9686 0.2345 -7.1194 -0.9378 0.7270 -3.9250 -1.4087 1.4398 -6.2290 0.7065 -0.4560 5.5745 -0.1379 -1.1797 -0.8500 0.6120 0.4220 8.2938 0.7390 0.8174 9.6116 -1.8614 2.2107 -8.6486 -1.2819 -2.1372 -1.0569 -0.1082 0.0757 -3.0809 0.9333 -0.9997 3.3264 0.1940 -1.0383 0.6017 -1.0290 1.5052 -7.6338 0.6368 0.1679 -5.8174 -0.6140 0.8023 -5.3450
0.4447 2.3471 9.4672 0.9778 0.3234 -8.7468 0.6100 -4.0920 -1.9569 0.9294 0.0604 9.9092 1.1605 2.6592 -8.6655 -1.0801 -4.1978 -0.4292 0.9133 1.5597 5.4259 1.1225 -0.8802 5.9064 0.1180 1.7180 6.7065 0.2915 -0.6725 7.1594 -1.5323 -1.5395 -1.6954 1.6628 0.0499 3.7609 -2.2543 0.7169 -2.4344 -0.2367 -0.4232 2.3310 2.0015 -1.1274 1.7351 -0.7101 -0.9769 1.0744 1.5743 -1.5807 0.5433 -2.3526 1.7461 -3.2965 -0.8358 2.6590 -6.6328 -1.6164 2.7231 -5.4101 -0.7149 -0.5661 -3.8465 -0.0160 0.4779 -5.9435 0.7612 0.1593 4.8580 -0.2072 -2.0476 -1.1553 0.5205 0.6808 7.6444 0.6315 0.9318 8.9968 0.7200 1.5437 -8.1508 -0.2935 -3.5495 -1.1032 -1.4172 -0.4497 -2.7012 1.0621 -0.5431 2.6767 0.1581 -1.5229 0.1984 -0.0606 1.5877 -6.8818 -1.5870 1.7039 -4.5313 -0.7449 0.5214 -4.8126
-0.5723 -0.7471 9.4551 -0.7964 -0.2752 -9.1191 -0.6180 -3.9167 -1.5906 0.1330 1.5150 9.6265 0.8948 1.3415 -9.2742 -2.0868 -3.3720 0.0663 1.8332 1.3618 5.6906 1.5692 -1.0622 5.7623 0.8521 1.5165 6.8349 0.6004 -0.9353 6.9215 -1.7171 -0.7675 -1.4377 2.1935 0.0538 3.7009 -1.1420 1.5231 -2.2267 0.0773 -0.1087 2.5235 2.1080 -1.0284 1.5768 -0.6453 -0.5796 1.3585 1.4450 -1.4210 0.4731 -0.8691 2.4529 -3.1611 -0.2670 2.4766 -6.8875 -0.4492 2.9249 -5.5189 -1.0561 -0.3550 -3.8013 -0.5010 0.1806 -6.1226 1.4150 0.1567 4.8816 -0.6292 -1.6801 -0.9048 0.7976 0.3113 7.6675 0.1592 0.4431 8.8967 -0.0327 0.7419 -8.5792 -1.2042 -3.0588 -0.7185 -1.2477 0.1045 -2.5481 1.3950 -0.3681 2.6579 0.0073 -1.2077 0.3607 -0.2538 1.1607 -7.1674 -0.6692 2.0308 -4.5376 -0.7236 0.5877 -4.8588
2.0226 1.1180 10.1700 -0.2287 1.4769 -10.1914 -1.9139 -3.0864 -0.6148 1.4045 -1.1771 10.2271 -1.5912 -0.2522 -9.4048 0.2036 -3.4390 -1.3741 0.0126 -0.8903 6.2673 1.1322 1.3415 6.1594 0.9788 -1.2702 7.3737 2.0476 0.9000 7.2843 -1.4348 -0.4631 -1.7854 -0.4199 0.6864 4.5118 0.2390 1.1479 -2.7390 -1.6162 0.2681 2.5244 0.6640 -0.5240 2.6735 -1.6494 -0.1757 1.1446 0.6302 -0.9424 1.3941 0.8290 1.8276 -3.7392 0.5773 1.9138 -7.5002 0.9899 2.2080 -6.1416 -1.1707 -0.1920 -4.2303 -0.9676 0.2542 -6.6313 0.6117 0.1636 5.3490 -0.4933 -1.1933 -0.8436 1.3416 -0.0676 8.1115 1.5782 -0.1375 9.4723 -0.7503 0.7160 -9.1597 -0.6706 -2.6833 -0.9732 -0.7593 0.1122 -2.9820 -0.5167 0.0811 3.2770 -0.5698 -0.7569 0.5852 -0.3643 0.9826 -7.7396 0.4395 1.5439 -5.1098 -0.5856 0.5092 -5.3650
-0.7124 0.2396 10.0346 -3.3026 0.1069 -8.2833 -2.6060 -0.0969 -0.2939 0.8443 1.9660 9.5556 -1.9359 1.4249 -9.6517 -2.2217 -1.9931 -1.4945 2.2226 -0.0751 6.0758 0.4180 -1.7023 6.3948 1.5293 0.8831 7.0231 -0.2593 -0.7604 7.3793 -0.0955 0.7639 -1.3541 1.7315 -1.6854 4.3505 1.6008 0.7837 -3.2011 0.7770 -0.0984 2.7950 1.0922 -2.4149 2.1599 0.2173 0.1564 1.4872 0.6327 -2.1606 0.9196 1.9773 0.8239 -4.4940 0.2184 0.9217 -7.8385 1.2694 0.9220 -6.8344 -0.7983 0.7882 -3.7138 -1.4312 0.8124 -6.0619 1.1561 -0.8777 5.3656 -0.3481 -0.6331 -0.8183 0.7085 0.1543 7.9938 0.3415 0.8421 9.1467 -2.1321 0.8038 -8.5212 -1.8066 -1.0030 -0.9073 0.1974 0.7593 -2.8083 1.1483 -1.3466 3.1454 0.1556 -0.8283 0.5707 -1.0751 0.8639 -7.4687 0.9538 0.8517 -5.5279 -0.4674 0.8081 -5.1247
0.5451 1.8831 9.6802 -0.0965 1.1095 -10.0715 -1.6101 -3.1984 -0.7476 2.3633 0.3599 9.8216 0.1791 -0.9827 -9.0627 0.3865 -3.3276 -1.8326 -0.2437 0.6844 6.2455 1.6933 -0.8789 6.3045 -0.6216 0.2324 7.6417 1.2652 -1.3042 7.6976 -1.4922 -0.4382 -1.6002 1.0404 0.2598 4.3135 -1.0345 1.7589 -2.6835 -0.5884 -0.7691 2.8554 1.5975 -0.1265 2.0500 -0.9567 -1.0951 1.4859 1.2370 -0.3709 0.7773 -0.8185 2.5818 -3.7268 -0.1928 2.1952 -7.4274 -0.3925 2.7909 -6.1200 -0.9744 -0.2808 -4.0394 -0.5625 0.0067 -6.4406 0.5157 -0.3867 5.4763 -0.3434 -1.1974 -0.9665 0.5658 -0.2103 8.3553 1.2199 0.6063 9.2618 -0.0572 0.2965 -8.9522 -0.4545 -2.6773 -1.2272 -1.0995 0.3091 -2.8314 0.6636 -0.3560 3.1433 -0.0886 -0.8919 0.4736 -0.2850 0.8621 -7.5872 -0.6399 2.0115 -5.0514 -0.7200 0.5438 -5.2152
-0.0576 1.3023 10.1510 -0.9541 -1.2858 -9.1350 -2.1798 -2.6328 -0.5352 1.6729 -0.3057 10.4212 0.1594 0.5674 -10.0275 -0.3380 -3.3152 -1.6830 0.2044 0.8983 6.0699 1.9559 -0.8576 6.2964 -0.3313 0.4988 7.4291 1.3926 -1.2019 7.6646 -1.4475 -0.0468 -1.5529 1.5118 0.2246 4.2147 -0.5939 1.9298 -2.7990 -0.3944 -0.4231 2.8723 1.8215 -0.2574 1.9216 -0.9079 -0.7005 1.5397 1.3405 -0.4590 0.6824 -0.2767 2.6314 -3.9029 0.0057 1.9263 -7.5973 0.0309 2.6155 -6.3216 -1.0598 -0.1435 -4.0212 -0.7371 -0.0821 -6.4526 0.8793 -0.2820 5.3884 -0.4729 -1.0262 -0.9292 0.7686 -0.0155 8.2308 0.8484 0.2442 9.5854 -0.3775 -0.0361 -9.0013 -0.9577 -2.4442 -1.0887 -0.9782 0.5228 -2.8495 0.9318 -0.2722 3.0710 -0.0779 -0.7177 0.4769 -0.3629 0.6340 -7.6654 -0.3102 1.9666 -5.1939 -0.7084 0.5432 -5.2592
-0.0626 1.2599 9.8661 -0.9292 -1.2446 -8.9481 -0.5631 -3.2127 -1.6333 -0.7732 -0.9872 9.5651 0.7524 0.2951 -9.5022 -2.1681 -2.6293 -0.1220 1.8571 1.1127 6.0724 1.5520 -1.3052 5.9427 0.7928 1.2049 7.1466 0.5199 -1.2460 7.0530 -1.4724 0.0379 -1.3037 2.3069 -0.0464 4.0065 -1.0405 2.0944 -2.6388 0.2484 0.1658 2.7396 2.2086 -0.8731 1.7681 -0.4729 -0.1107 1.5137 1.5531 -1.0816 0.6112 -0.8710 2.7877 -3.7807 -0.4589 1.9464 -7.4384 -0.6074 2.7011 -6.2071 -0.9288 -0.0960 -3.7327 -0.4954 -0.1069 -6.1365 1.4738 -0.0207 5.1524 -0.4891 -1.0157 -0.8325 0.6706 -0.0511 7.8921 -0.0719 -0.0156 9.0690 -0.1622 -0.1287 -8.6739 -1.1798 -2.3524 -0.7854 -1.0918 0.6368 -2.6125 1.5228 -0.2528 2.8894 0.1491 -0.7117 0.4809 -0.3613 0.6053 -7.3955 -0.7168 2.0591 -5.0292 -0.6911 0.5811 -4.9966
2.7211 0.8402 9.7707 2.0110 -0.0352 -8.4930 -0.1221 -3.3901 -1.4136 0.4584 1.3985 10.2394 0.5524 1.2808 -9.7634 1.6792 -2.1690 -2.0827 1.6068 -0.5542 6.0426 -0.7822 0.0331 6.4803 2.0173 0.5277 7.0212 -0.3006 1.0870 7.4607 -1.4847 -0.8365 -1.6698 -0.1410 -1.3899 4.6664 -2.2051 1.2090 -2.9048 0.7307 -0.3817 2.6565 -1.1537 -1.8987 2.5741 0.7020 -0.3160 1.2090 -1.1513 -1.8720 1.2279 -2.2791 2.0216 -3.9765 -0.7122 2.1613 -7.4076 -1.5256 2.4896 -6.2517 -0.6623 -0.3621 -3.9775 0.0671 0.1758 -6.2486 0.2602 -0.2395 5.4102 -0.1538 -1.0531 -0.9809 0.9740 0.6638 8.0275 1.2923 0.9991 9.3308 0.8908 0.7665 -8.6118 0.5872 -2.2422 -1.5364 -1.3770 0.0084 -2.8947 -0.1965 -1.0986 3.3228 -0.1820 -1.0521 0.5086 0.0461 1.0493 -7.4117 -1.5025 1.6985 -5.1635 -0.6650 0.4809 -5.1607
1.4218 0.8859 10.4764 -2.8621 -1.0196 -8.5811 -1.6903 -2.0705 -1.7318 0.1411 -1.1179 10.4289 -0.9086 -0.9575 -9.8733 -2.7500 -0.4946 -0.4683 1.8636 0.5749 6.3470 0.2879 -1.3522 6.3131 1.2210 1.0500 7.6360 -0.3577 -0.8061 7.5741 -0.3855 1.0367 -1.5350 1.6209 -0.7600 4.4062 0.9667 2.0012 -3.3918 0.2063 0.4456 2.8473 1.3913 -1.5586 2.1926 -0.2806 0.5620 1.4795 0.9939 -1.4160 0.9159 1.2726 2.2409 -4.6813 0.1386 0.9513 -8.0453 0.8572 1.6919 -7.0243 -0.8001 0.3918 -3.9208 -1.1550 -0.1229 -6.2905 0.8817 -0.2152 5.4962 -0.3576 -0.3378 -0.8875 0.6542 -0.0919 8.3384 0.6746 -0.1745 9.7171 -1.5411 -0.6595 -8.7709 -1.7323 -0.9503 -0.9680 -0.0735 1.0550 -2.9961 0.9604 -0.6135 3.2095 0.0995 -0.3289 0.5394 -0.8169 0.0724 -7.6928 0.5591 1.5216 -5.7231 -0.5009 0.5664 -5.3354
0.3232 -0.0141 10.6773 0.0682 1.8973 -9.9453 2.2811 -1.1770 -1.2886 2.4404 0.7013 9.8630 1.8162 0.8562 -8.7930 2.0879 1.0887 -1.4134 1.3460 -0.2676 5.9484 -0.9331 -0.7993 6.8237 1.5323 0.6701 7.1251 -0.6666 0.1326 7.9894 -0.5324 -1.1960 -1.8118 -0.2926 -1.4573 4.6449 -2.3688 -0.2362 -3.2103 -0.5415 0.1627 2.8653 0.2999 -2.0672 2.4338 -0.4439 0.4367 1.4429 0.3264 -1.8331 1.1096 -2.8998 0.2515 -4.3474 -1.6265 1.1856 -7.7749 -2.5167 0.9543 -6.6533 -0.0921 -0.3542 -4.1117 0.2328 0.4375 -6.4054 -0.1270 -0.4058 5.5957 0.1444 -0.2274 -0.8627 0.7651 0.1578 8.2523 1.2440 0.3226 9.5381 0.5690 1.2400 -8.8350 1.5960 -0.0112 -1.2016 -0.9498 -0.5466 -3.0878 -0.1250 -1.0234 3.3529 -0.0337 -0.5203 0.5878 -0.3058 0.9555 -7.6558 -2.0311 0.4859 -5.4896 -0.5862 0.2006 -5.3626

>  <OB_ATOM_TYPES> (1mtsA1)
C.3 N.pl3 O.co2 N.2 N.pl3 O.co2 C.3 C.3 C.3 C.3 C.3 O.3 C.ar C.ar C.ar C.ar C.ar C.ar C.ar C.ar C.ar C.ar C.3 C.3 N.pl3 C.2 C.2 C.2 C.ar C.ar C.ar C.ar C.ar C.ar

>  <ENSEMBLE_RMSD> (1mtsA1)
1.134 1.217 1.232 1.281 1.288 1.413 1.485 1.485 1.538 1.612 1.623 1.653 1.702 1.712 1.713 1.734 1.818 1.907 2.122 2.193 2.207 2.208 2.223 2.239 2.250 2.271 2.284 2.296 2.310 2.312 2.313 2.316 2.322 2.352 2.486 2.502 2.511 2.551 2.559 2.566 2.609 2.692 2.829 2.906 2.964 2.993 3.117 3.187 3.407 3.534

$$$$
