
 OpenBabel03071213D

 33 36  0  0  0  0  0  0  0  0999 V2000
   22.7350    4.7550   11.8050 C   0  0  0  0  0
   28.9960   17.0900   13.6140 N   0  0  0  0  0
   27.6190    6.2270   18.4150 O   0  0  0  0  0
   22.2530    6.1890    9.9300 N   0  0  0  0  0
   30.1770   15.1780   12.7650 N   0  0  0  0  0
   28.6210    6.2620   16.5880 O   0  0  0  0  0
   21.0260    9.0990   12.7970 C   0  0  0  0  0
   21.5120    8.4190   11.4890 C   0  0  0  0  0
   21.9280    6.9890   13.4310 C   0  0  0  0  0
   29.0130    9.1480   16.9340 C   0  0  0  0  0
   23.3160    9.0370   13.8050 O   0  0  0  0  0
   28.3350   11.2370   18.2700 C   0  0  0  0  0
   24.0060    8.4440   16.2600 C   0  0  0  0  0
   25.5950    9.0090   14.2620 C   0  0  0  0  0
   25.0330    8.2720   17.0890 C   0  0  0  0  0
   26.6970    8.8470   15.0930 C   0  0  0  0  0
   28.1740   12.6380   18.3360 C   0  0  0  0  0
   28.6700   15.5540   16.0850 C   0  0  0  0  0
   28.3420   14.8070   17.2320 C   0  0  0  0  0
   29.1290   11.4250   15.9630 C   0  0  0  0  0
   29.2930   13.5430   14.8900 C   0  0  0  0  0
   21.9820    8.4810   13.8330 C   0  0  0  0  0
   27.7540    8.3360   17.3380 C   0  0  0  0  0
   21.9360    7.1010   11.9800 N   0  0  0  0  0
   22.2830    6.0930   11.2050 C   0  0  0  0  0
   29.5010   15.7310   13.6910 C   0  0  0  0  0
   28.0140    6.8790   17.4520 C   0  0  0  0  0
   28.8110   10.6450   17.0780 C   0  0  0  0  0
   24.2920    8.8250   14.7840 C   0  0  0  0  0
   26.4880    8.4970   16.4490 C   0  0  0  0  0
   29.1590   14.9250   14.9110 C   0  0  0  0  0
   28.4890   13.4200   17.2120 C   0  0  0  0  0
   28.9740   12.8030   16.0210 C   0  0  0  0  0
  1 25  1  0  0  0
  2 26  1  0  0  0
  3 27  1  0  0  0
  4 25  2  0  0  0
  5 26  2  0  0  0
  6 27  2  0  0  0
  7  8  1  0  0  0
  7 22  1  0  0  0
  8 24  1  0  0  0
  9 22  1  0  0  0
  9 24  1  0  0  0
 10 23  1  0  0  0
 10 28  1  0  0  0
 11 22  1  0  0  0
 11 29  1  0  0  0
 12 17  1  0  0  0
 12 28  2  0  0  0
 13 15  2  0  0  0
 13 29  1  0  0  0
 14 16  1  0  0  0
 14 29  2  0  0  0
 15 30  1  0  0  0
 16 30  2  0  0  0
 17 32  2  0  0  0
 18 19  2  0  0  0
 18 31  1  0  0  0
 19 32  1  0  0  0
 20 28  1  0  0  0
 20 33  2  0  0  0
 21 31  2  0  0  0
 21 33  1  0  0  0
 23 27  1  0  0  0
 23 30  1  0  0  0
 24 25  1  0  0  0
 26 31  1  0  0  0
 32 33  1  0  0  0
M  END
>  <MOLID> (1mtwA1)
1mtwA1

>  <SMILES_CANONICAL> (1mtwA1)
CC(=N)N1CC[C@@H](C1)Oc1ccc(cc1)[C@@H](C(=O)O)Cc1ccc2c(c1)cc(cc2)C(=N)N	

>  <FINGERPRINT> (1mtwA1)
0000010000000000001000000000000000000000000000000000000000001000001000000001000000000001000010100000000000000001000001100000001000000000000000000001000011000001000000100000000000000000000100000000001000000100000000000000000000100000000000000001000000000000000000000000000000001011000000000000000000001000000010001100001100001000001100000000000000000000010000000000000010010000000000000000010110000000100010100000001000000000000000000000000000000000010000010000010000010000000000010000000000011000001000000000100000011000001000000000000000000000000000100000000000000000000000000000000011000000000000000000100000000000000000100000001000000001000000000000000000000001000000000001100000010100101010100000100000010011000000000000000011000000000000000100000000000000000100000000000000000000000010000000000110000000000000000000000000000000010000000001001000000000000000000001000000000000000000000000000100000000000000000000001000011000000000000000011000000000000000101100000000000100001000000000000000000000000000000000011101000000

>  <MACCS166> (1mtwA1)
000000000000000000000000010000000000010000100000010000000000000000000000001111000011110001000011001100001001000010010011111011100011000111111110110110111111111110111000

>  <OB_MW> (1mtwA1)
444.216

>  <OB_logP> (1mtwA1)
4.8227

>  <OB_PSA> (1mtwA1)
123.49

>  <OB_MR> (1mtwA1)
134.866

>  <OB_ATOMIC_CHARGES> (1mtwA1)
0.1348517147 0.2047061673 -0.2452917858 0.1878846527 0.2047061673 -0.2452917858 0.0986140528 0.2061348493 0.2459269703 0.0420145664 -0.4747525533 -0.0042430341 0.0365885115 0.0365885115 -0.0006186996 -0.0006186996 -0.0003222348 0.0079924041 0.0002550535 -0.0042397303 0.0079825047 0.2164172677 0.1299377823 -0.1871066651 0.3532291256 0.4766083983 0.3686722338 -0.0213028324 0.138558353 -0.011284944 0.0974773452 -1.33042e-05 -6.03634e-05

>  <MCT_HBD> (1mtwA1)
4

>  <MCT_HBA> (1mtwA1)
7

>  <ENSEMBLE_TOTAL> (1mtwA1)
50

>  <ENSEMBLE_COORDS> (1mtwA1)
-5.3359 -3.8606 -5.7149 2.7028 6.9539 -1.2123 2.7339 -3.2023 2.6560 -4.9197 -5.5212 -4.0636 1.4192 5.1706 -2.0147 0.7654 -3.1525 3.8072 -4.6449 -1.1773 -2.3292 -4.8739 -1.8506 -3.6759 -4.2341 -3.5012 -2.0645 1.1221 -0.2080 3.2068 -2.4295 -1.9596 -1.9308 3.1724 1.1778 3.4947 -1.9811 -1.7798 0.4874 -0.2319 -1.6114 -1.1791 -1.0826 -1.6391 1.4815 0.7336 -1.4684 -0.1116 3.9932 2.3139 3.1104 3.9454 5.0530 0.6991 4.3903 4.2773 1.7068 1.5621 1.8175 1.7981 1.8969 3.7481 0.3518 -3.7866 -2.1480 -1.5299 1.3415 -1.3682 2.2618 -4.5305 -3.2491 -3.4672 -4.9222 -4.2519 -4.3247 2.2396 5.6547 -1.1217 1.5400 -2.6590 3.0022 2.0121 0.9326 2.8589 -1.5372 -1.7673 -0.9008 0.3355 -1.4988 1.1731 2.6901 4.7813 0.0055 3.5960 3.1295 2.1160 2.3183 2.8642 1.4239
-6.0125 -4.0667 -4.9073 2.9182 6.7232 -1.4314 2.8154 -3.6492 1.7456 -5.8180 -4.8638 -2.6750 2.6770 4.6824 -2.5509 1.4299 -3.9437 3.5282 -3.2359 -1.0184 -3.5101 -4.0966 -2.0072 -4.2785 -3.9047 -2.7333 -2.0057 2.7991 -0.9090 2.3642 -2.5913 -0.8377 -1.2400 2.1127 1.2066 3.5245 -0.3008 -1.5177 -0.8053 -1.8732 -1.1204 0.9931 0.7030 -1.7037 0.0735 -0.7881 -1.3002 1.9370 1.8383 2.6333 3.4609 1.9147 5.3394 1.0105 1.7190 4.7245 2.1936 2.8215 1.2818 1.2064 2.8065 3.3373 -0.0924 -2.7524 -1.7843 -2.2904 1.5610 -1.7744 2.4850 -4.3877 -3.0770 -3.3354 -5.3900 -3.9993 -3.5405 2.6985 5.3588 -1.4343 1.9065 -3.2277 2.6583 2.5481 0.5534 2.4311 -1.6558 -1.2725 -0.3253 0.4545 -1.5860 1.5046 2.4715 4.6412 -0.1438 2.0381 3.3101 2.3142 2.5735 2.6001 1.1354
-4.3668 -3.6157 -5.8753 2.7229 7.1520 -1.2008 1.1314 -2.2315 4.5327 -2.2367 -3.1886 -4.9067 2.6420 5.3061 -2.6368 1.7960 -3.5850 2.8211 -5.4595 -3.0903 -1.7612 -5.4648 -3.0662 -3.2744 -3.4263 -2.0997 -2.4952 2.1067 -0.9561 1.4558 -4.0217 -2.2429 -0.1226 3.1239 0.8778 2.8020 -1.6533 -2.8265 0.1068 -2.6724 -1.0293 1.3754 -0.4568 -2.5811 0.6705 -1.3971 -0.8012 2.0213 3.5469 2.2596 2.9313 3.6382 5.3059 0.9313 3.8170 4.4974 1.9932 2.2971 1.3746 0.5757 2.5127 3.5915 -0.4178 -4.0047 -2.9394 -1.3652 0.9722 -1.3412 2.3773 -4.1792 -2.5044 -3.6811 -3.5184 -3.0789 -4.7547 2.7686 5.7896 -1.4308 1.3451 -2.5241 3.2256 2.5165 0.4549 1.6779 -2.7936 -1.9829 0.4357 -0.3279 -1.5471 1.6887 2.9767 4.8505 -0.2871 3.3626 3.1188 1.9126 2.7029 2.6534 0.6748
-5.7500 -3.0731 -5.5591 3.8451 7.0937 -1.0847 2.9778 -2.3577 2.3003 -4.4562 -5.0239 -5.1397 2.9630 5.2700 -2.2557 1.1732 -2.7281 3.6472 -5.0961 -2.3746 -1.3584 -5.6449 -2.4787 -2.7683 -4.2680 -4.3894 -2.3246 0.6483 0.1412 2.7871 -2.7731 -2.5688 -1.8762 2.4927 1.5326 3.6992 -2.1336 -2.2782 0.4668 -0.5270 -2.0815 -1.3322 -1.2213 -1.8792 1.3709 0.4506 -1.6293 -0.3615 3.4273 2.6362 3.5733 4.2914 5.2584 1.1942 4.3319 4.5275 2.3239 1.5980 2.0922 1.5135 2.4713 3.9523 0.1917 -3.8859 -3.2904 -1.3504 1.1098 -1.0126 1.9252 -5.2351 -3.7959 -3.2478 -5.0917 -4.0288 -4.6042 3.3759 5.7939 -1.1338 1.7129 -2.1246 2.7331 1.6185 1.2674 2.7114 -1.7695 -2.4155 -0.9395 0.1202 -1.5170 0.9387 3.3597 4.9640 0.1105 3.4214 3.4037 2.4683 2.4633 3.1141 1.3808
-5.5092 -4.7412 -1.8474 2.2037 6.7309 -1.4908 2.6896 -3.7122 1.9118 -6.7171 -2.8169 -2.5528 3.5938 4.9865 -2.1931 1.1390 -3.8328 3.5757 -2.9443 -1.4332 -4.1607 -4.4151 -1.7382 -3.9413 -3.1202 -3.2670 -2.6334 2.6285 -0.9371 2.2181 -2.2739 -1.1201 -1.9013 1.9503 1.1398 3.4461 -0.0301 -1.6470 -1.1662 -1.8805 -1.5149 0.3975 0.8507 -1.7767 -0.1571 -0.9275 -1.6315 1.4832 1.7208 2.5754 3.4432 2.0241 5.4036 1.1542 1.7495 4.7346 2.2914 2.6701 1.2906 1.1352 2.7168 3.3971 -0.0765 -2.2489 -2.0655 -2.9697 1.3765 -1.7813 2.3396 -4.4292 -3.0021 -3.2162 -5.5731 -3.4244 -2.5685 2.7917 5.4955 -1.2971 1.7022 -3.2051 2.6890 2.3845 0.5226 2.3319 -1.4529 -1.5369 -0.8771 0.3901 -1.7346 1.2244 2.5148 4.7285 -0.0441 1.9626 3.2964 2.3321 2.4629 2.6172 1.1200
-5.1895 -1.9123 -5.9551 1.5514 6.1289 -2.2322 1.6464 -3.2222 4.6744 -6.3817 -2.8975 -4.1480 2.7600 4.2527 -2.9309 2.7563 -3.8605 2.7869 -2.4980 -1.1241 -2.5951 -3.1141 -1.3151 -3.9690 -3.9928 -2.9708 -2.4802 2.8118 -0.8986 2.4307 -2.8883 -2.2742 -0.5099 2.3535 1.3520 3.4494 -0.4465 -2.4559 -0.2123 -1.9069 -1.5847 1.5101 0.6263 -2.3246 0.5955 -0.7597 -1.4664 2.3835 2.1192 2.7777 3.2757 1.9266 5.2208 0.5660 1.8966 4.7396 1.8247 2.5747 1.1374 1.0449 2.3642 3.0348 -0.4560 -2.6763 -2.4651 -1.9061 1.6226 -1.7134 2.8888 -4.0602 -2.4148 -3.8256 -5.2392 -2.4334 -4.5459 2.1677 4.9186 -1.9762 2.0743 -3.0522 3.3984 2.5504 0.5633 2.3762 -1.7651 -2.0409 0.2537 0.4640 -1.8304 1.9584 2.1645 4.3603 -0.5892 2.1226 3.3185 2.0425 2.3652 2.4524 0.8719
-7.2857 -4.2528 -3.3233 2.8636 7.6324 -0.4829 2.1414 -3.2697 2.5359 -6.2069 -4.7242 -5.3890 3.3370 5.9340 -2.0239 0.9968 -2.3559 4.2788 -2.8449 -2.8144 -3.5449 -3.6525 -3.8085 -4.3555 -4.7465 -3.4150 -2.2611 2.3608 -0.6602 1.4830 -3.1579 -1.8202 -1.4186 3.1031 1.1005 3.0805 -0.9119 -2.4293 -0.7206 -2.3875 -1.1570 0.7124 0.1207 -2.2370 0.1194 -1.2660 -0.9204 1.6023 3.4259 2.4847 3.3713 3.6641 5.6779 1.6309 3.7185 4.7971 2.6479 2.5801 1.7376 0.7985 2.8129 4.0378 0.0131 -3.2774 -3.0601 -2.1108 1.1180 -1.1536 2.1937 -4.8259 -4.1133 -3.5420 -6.0394 -4.3610 -4.1555 3.1308 6.3119 -0.7916 1.3957 -2.3034 3.1233 2.6820 0.7430 1.8533 -2.2337 -1.9047 -0.3958 -0.0524 -1.4288 1.3177 3.2021 5.2963 0.3008 3.3425 3.4142 2.4024 2.8927 3.0221 1.0501
-5.6064 -5.9938 -4.6107 3.2473 7.7619 0.0945 1.7035 -3.2777 2.0442 -4.7529 -6.4295 -2.4351 3.1518 6.2145 -1.6584 0.5492 -2.3844 3.7934 -4.5152 -1.9339 -3.6688 -5.1135 -3.2222 -4.1869 -4.2841 -3.5824 -1.9655 2.2513 -0.6629 1.1918 -3.5244 -1.2907 -1.6453 3.2974 0.8446 2.8749 -1.1590 -1.7314 -1.2475 -2.6093 -0.8459 0.4771 -0.0919 -1.6495 -0.4303 -1.4538 -0.7130 1.3391 3.7614 2.1616 3.2717 4.0312 5.5166 1.8708 4.1433 4.5216 2.7713 2.5782 1.7756 0.7538 2.8870 4.1288 0.2019 -3.5749 -2.3770 -2.5657 0.9333 -1.0439 1.8289 -5.0797 -4.1450 -3.0573 -5.0970 -5.5098 -3.2804 3.2545 6.4639 -0.3809 1.0303 -2.2845 2.6729 2.7199 0.6614 1.6734 -2.4831 -1.3803 -0.7503 -0.2404 -1.1151 0.9175 3.3909 5.3225 0.5744 3.6419 3.2014 2.4264 3.0135 2.9985 1.1050
-5.6171 -3.4814 -6.0970 3.2675 6.9988 -1.4148 1.9505 -3.2394 3.2894 -6.6761 -4.4014 -4.1771 1.4491 5.6025 -1.8908 0.7609 -1.9403 4.7319 -3.0011 -1.9121 -3.0106 -3.5720 -2.4553 -4.3094 -4.4033 -3.7514 -2.4776 2.4558 -0.8308 1.8487 -3.3043 -2.6182 -0.7058 3.4125 1.0913 3.1230 -0.9367 -2.8855 -0.1927 -2.2557 -1.0878 0.7494 0.1146 -2.5583 0.5842 -1.1333 -0.7534 1.6033 3.7544 2.5015 3.2080 3.4464 5.5327 1.1974 3.7747 4.7502 2.2440 2.5092 1.4821 0.9071 2.5528 3.6798 -0.1426 -3.1124 -3.0752 -2.0418 1.1242 -1.1671 2.4788 -4.4588 -3.5464 -3.9200 -5.6094 -3.8234 -4.6331 2.4908 5.8853 -1.1565 1.2365 -2.1375 3.6221 2.7942 0.6064 2.0299 -2.1620 -2.0975 -0.1344 0.0035 -1.4723 1.5498 2.8343 4.9912 -0.0112 3.4767 3.3272 2.1817 2.8333 2.7858 0.9669
-6.2503 -5.7993 -2.7695 1.2803 6.2075 -0.8442 1.5312 -3.0634 3.0642 -5.9064 -5.4853 -5.1040 3.3209 7.3131 -0.5346 0.2318 -1.6285 4.2615 -3.8364 -1.8549 -3.6944 -4.4951 -2.9312 -4.5404 -4.2181 -3.7701 -2.3037 2.3987 -0.8348 1.5380 -3.4371 -1.7534 -1.3411 3.9501 0.7178 2.7316 -1.2496 -2.5056 -0.5684 -2.1111 -0.3105 -0.0289 -0.2053 -2.3350 0.2647 -1.0045 -0.1414 0.8937 4.5300 2.0431 2.8983 4.1162 5.4133 1.5412 4.6209 4.4217 2.3026 2.5167 1.6060 0.9943 2.5884 3.9385 0.3122 -3.2786 -2.5883 -2.4870 0.9899 -0.9763 2.0691 -4.7713 -4.0171 -3.6192 -5.6155 -5.0608 -3.9146 2.5574 6.2774 -0.3159 0.8598 -1.9015 3.2478 2.9680 0.5106 1.8339 -2.2308 -1.4411 -0.7481 -0.0961 -1.1211 1.0623 3.0955 5.1676 0.5269 4.1024 3.0701 2.1392 3.0478 2.8329 1.1326
-2.2105 -2.1683 -5.4980 1.7454 6.6019 -1.4663 0.6799 -1.8445 5.0490 -4.2582 -0.9588 -5.4128 1.3966 4.6384 -2.6926 1.4608 -3.5057 3.6948 -4.9950 -3.3353 -1.8037 -5.1579 -2.5498 -3.0961 -2.8358 -3.0876 -2.7883 2.2493 -1.1815 2.0201 -3.3555 -1.9088 -0.7938 3.6212 0.7585 2.7483 -1.2058 -2.7022 0.0215 -2.5312 -1.1048 1.2629 -0.1629 -2.5321 0.8521 -1.3959 -0.8963 2.1407 4.0531 2.1345 2.5797 3.4401 4.9608 0.3579 3.9748 4.2583 1.3749 2.1297 1.0353 0.8543 1.9516 3.1446 -0.3585 -3.5295 -3.1738 -1.4339 0.9500 -1.3077 2.7898 -3.8392 -2.5723 -3.7048 -3.5202 -1.8516 -4.8327 1.8213 5.2291 -1.6088 1.0687 -2.3599 3.8558 2.6937 0.2334 1.9272 -2.4565 -1.9874 0.2505 -0.2477 -1.5703 1.9417 2.4123 4.4021 -0.5140 3.5372 2.8885 1.5916 2.5161 2.3133 0.6915
-7.0822 -4.2729 -2.2044 3.2718 7.7486 0.0057 0.5494 -2.4273 3.5826 -5.3674 -5.4513 -1.0534 3.8942 6.1407 -1.5784 1.8019 -3.4852 1.9949 -3.7624 -2.5868 -4.4076 -5.0881 -3.1691 -3.9485 -3.3239 -4.0950 -2.6182 2.2872 -0.6638 1.1427 -3.0478 -1.7120 -2.3180 2.6357 0.9601 2.9988 -0.7588 -2.1758 -1.5792 -2.3241 -0.9206 -0.2153 0.1956 -2.0659 -0.6393 -1.2854 -0.7760 0.7836 2.8903 2.3110 3.4583 3.5339 5.6123 2.0583 3.3583 4.6598 2.9936 2.5996 1.7790 0.7144 3.0130 4.1219 0.1779 -2.8334 -2.7910 -3.2270 0.9735 -1.2287 1.6282 -4.7319 -4.2040 -2.9832 -5.6401 -4.6644 -2.0477 3.5131 6.4392 -0.3662 1.1661 -2.5149 2.3777 2.4927 0.7042 1.6852 -2.0844 -1.6202 -1.3376 -0.0790 -1.3395 0.5908 3.3503 5.3440 0.6361 3.0211 3.3113 2.5686 2.8613 3.0326 1.1264
-6.4006 -1.9512 -3.3303 1.8076 6.1907 -1.8881 2.4238 -3.8862 2.6342 -5.5372 -3.9502 -2.3743 0.7597 4.1669 -2.4190 0.7716 -3.5037 4.1531 -2.2382 -1.1046 -4.0326 -3.7420 -1.2772 -4.1767 -2.8294 -3.1422 -2.9854 2.7644 -1.1093 2.4082 -2.2465 -1.2351 -1.6582 2.8996 1.1376 3.5059 -0.0729 -2.0054 -0.8224 -1.7339 -1.0108 0.6327 0.7900 -2.1374 0.2011 -0.7931 -1.1256 1.7286 2.8143 2.5875 3.4127 2.0563 5.1379 0.9072 2.3967 4.6187 2.1041 2.4546 1.0018 1.1278 2.0184 2.9644 -0.2302 -1.8845 -1.9630 -2.8327 1.4068 -1.7396 2.6437 -4.0265 -2.6035 -3.6305 -5.2603 -2.8958 -3.0769 1.4514 4.8918 -1.5814 1.4820 -3.1195 3.2337 2.7101 0.3772 2.4119 -1.4005 -1.4507 -0.5933 0.4196 -1.6758 1.5311 1.8549 4.3003 -0.2711 2.5373 3.1755 2.2331 2.3466 2.3365 1.0341
-4.8885 -2.8794 -6.1572 2.0477 6.0939 -2.1459 0.9713 -2.4175 4.9907 -6.4409 -2.3806 -4.4262 0.1389 4.8022 -1.7082 1.9104 -3.7166 3.3681 -2.0471 -2.3640 -3.0981 -2.8300 -3.0749 -4.1828 -4.3204 -2.3947 -2.4362 2.6462 -1.0887 2.2546 -2.6817 -1.3573 -1.0392 3.6572 1.0463 3.0539 -0.6180 -2.3123 -0.2074 -2.0851 -1.0298 1.2224 0.3573 -2.2906 0.7170 -1.0230 -0.9822 2.2113 3.8633 2.4778 2.9026 2.8329 5.1839 0.6774 3.4469 4.5762 1.7119 2.3442 1.0597 1.0163 1.9154 3.0967 -0.2403 -2.9189 -2.4988 -1.8611 1.3133 -1.4066 2.9089 -4.2280 -2.9826 -3.7720 -5.2208 -2.7233 -4.6993 1.3717 5.1268 -1.4285 1.4447 -2.6505 3.7414 2.9022 0.3727 2.1668 -1.9047 -1.6789 0.0570 0.1669 -1.5621 1.9632 2.0547 4.4347 -0.3017 3.3062 3.1358 1.8686 2.5157 2.3845 0.8721
-6.1112 -0.7637 -4.0583 1.6597 6.1685 -2.0731 2.8436 -3.7184 2.4506 -6.4961 -3.1096 -4.1389 3.1265 4.4386 -2.6471 1.3755 -3.6849 4.1906 -2.2155 -3.2769 -3.2613 -3.6824 -3.6255 -3.4691 -3.4727 -1.2812 -3.0174 2.7929 -0.9010 2.5468 -2.4539 -2.2987 -1.1097 2.1521 1.2997 3.5543 -0.0884 -2.1131 -0.6178 -1.7817 -1.4502 0.9768 0.8679 -2.0568 0.3272 -0.7524 -1.3917 1.9960 1.8746 2.7177 3.3939 1.8672 5.2367 0.7503 1.7282 4.7138 1.9847 2.6284 1.1658 1.1800 2.4694 3.0965 -0.2869 -2.2247 -1.9688 -2.4817 1.5571 -1.7473 2.7668 -4.4007 -2.3714 -3.2872 -5.6502 -2.1758 -3.8337 2.3579 5.0167 -1.7638 1.8908 -3.1415 3.2226 2.5043 0.5555 2.4900 -1.4718 -1.7873 -0.2880 0.5160 -1.7331 1.7023 2.2401 4.4189 -0.3999 1.9794 3.2946 2.1822 2.3704 2.4741 1.0188
-6.3071 -1.4774 -4.8076 2.6280 3.8913 -3.0746 1.3617 -3.2303 4.7148 -4.7105 0.2553 -4.4834 2.0640 6.0173 -2.2829 2.8580 -3.7323 3.0697 -3.7727 -3.7004 -2.1098 -4.9391 -3.0520 -2.8347 -3.1117 -1.5075 -2.7417 2.7040 -0.7819 2.7878 -1.5630 -3.0023 -1.6395 1.9046 1.4588 3.5474 -1.4454 -2.3254 0.7063 0.5185 -2.4166 -0.7032 -0.6911 -2.0528 1.7876 1.3342 -2.1646 0.4681 1.5837 2.8442 3.2503 1.5673 5.1159 0.3965 1.4020 4.6957 1.6653 2.5487 1.1550 1.2281 2.4277 2.9630 -0.4023 -2.9088 -2.5404 -1.6470 1.5102 -1.7100 2.9378 -4.5025 -1.6949 -3.1332 -5.0873 -0.9305 -4.1201 2.2650 4.7480 -2.0505 1.9974 -3.0022 3.5388 2.3387 0.6416 2.5708 -0.8220 -2.4690 -0.6045 0.7606 -1.9972 1.6754 2.0906 4.2441 -0.6517 1.7403 3.3224 2.0020 2.2560 2.4350 0.9401
-6.3315 -5.7037 -4.9365 4.3221 7.5115 -0.5403 1.8431 -3.0104 2.6835 -7.1157 -3.5461 -4.3138 2.6966 6.2727 -1.6829 0.5491 -1.9692 4.2406 -2.7972 -4.0301 -3.0489 -3.8572 -4.9869 -3.5588 -4.9158 -3.1204 -2.4929 2.2143 -0.5257 1.4554 -2.9175 -1.9389 -1.9087 3.0281 1.1482 3.1095 -0.8658 -2.5237 -0.8062 -2.3805 -0.8981 0.1614 0.0659 -2.2560 0.1235 -1.3668 -0.6003 1.1585 3.4239 2.5041 3.4389 3.7979 5.7364 1.7972 3.8055 4.8255 2.7890 2.7051 1.8381 0.8057 3.1509 4.1187 0.0674 -3.5000 -3.2392 -1.9601 0.8985 -0.9082 2.1032 -5.1354 -4.3519 -3.2490 -6.1931 -4.4388 -4.1352 3.4873 6.4155 -0.6540 1.0618 -1.9971 3.1300 2.6488 0.8366 1.8564 -2.1523 -1.8452 -0.7668 -0.1824 -1.2407 1.1362 3.4743 5.3786 0.4204 3.4482 3.4502 2.4829 3.0898 3.0943 1.0945
-6.1041 -0.7560 -4.0543 2.7460 4.2528 -2.8447 2.8227 -3.7065 2.4045 -6.4981 -3.1001 -4.1470 2.1134 6.3007 -1.9109 1.3948 -3.7051 4.1788 -2.2051 -3.2438 -3.2836 -3.6637 -3.6032 -3.5233 -3.5011 -1.2816 -2.9471 2.7916 -0.9043 2.5404 -2.4383 -2.3466 -1.0910 2.1423 1.2918 3.5434 -0.0840 -2.1461 -0.5906 -1.7798 -1.4162 0.9731 0.8665 -2.0759 0.3578 -0.7549 -1.3463 1.9985 1.8496 2.7061 3.3845 1.8017 5.2269 0.7439 1.6720 4.7003 1.9773 2.6587 1.1743 1.1771 2.5149 3.1162 -0.2790 -2.2361 -1.9672 -2.4542 1.5509 -1.7386 2.7881 -4.4055 -2.3740 -3.2799 -5.6507 -2.1709 -3.8327 2.3651 5.0282 -1.7635 1.8910 -3.1427 3.2120 2.5144 0.5544 2.4813 -1.4661 -1.8044 -0.2768 0.5090 -1.7199 1.7227 2.2295 4.4272 -0.4004 1.9628 3.2891 2.1768 2.3908 2.4813 1.0186
-5.4056 0.0322 -4.3564 2.1781 3.8086 -3.2302 2.6835 -3.8035 2.6166 -4.4751 -1.5394 -5.8856 1.7764 5.9317 -2.3399 1.5748 -3.5596 4.5897 -2.9723 -3.5912 -2.3932 -3.5469 -3.2514 -3.7510 -3.8291 -1.3552 -2.3079 2.8037 -0.9860 2.5166 -2.8990 -2.3970 -0.3520 2.4222 1.3161 3.4138 -0.4887 -2.4939 -0.0695 -1.9180 -1.3884 1.5480 0.5761 -2.3678 0.7427 -0.7750 -1.2766 2.4347 2.1685 2.7274 3.1816 1.8268 5.0408 0.3824 1.8570 4.6134 1.6590 2.5693 0.9906 1.0139 2.2877 2.8278 -0.5667 -2.7206 -2.2363 -1.7571 1.5793 -1.7360 3.0046 -4.2575 -1.9944 -3.5502 -4.6577 -1.2416 -4.6372 1.9959 4.6578 -2.1531 1.9283 -3.1135 3.5067 2.5896 0.4788 2.3738 -1.7849 -1.9568 0.3349 0.4186 -1.7811 2.0682 2.0434 4.1414 -0.7476 2.1171 3.2081 1.9255 2.3341 2.2948 0.7849
-6.8725 -4.3827 -2.9189 1.7969 5.5381 -1.9144 1.2397 -3.0765 3.3464 -6.6244 -2.6059 -4.4820 2.6573 7.2521 -0.5765 -0.1166 -1.5459 4.3466 -2.5591 -4.3681 -2.8904 -4.0313 -4.7336 -2.9285 -3.7437 -2.5276 -3.8235 2.3822 -0.8683 1.9347 -2.8740 -2.3768 -1.6141 3.6581 0.9162 3.1124 -0.6825 -2.7570 -0.6987 -1.8522 -0.6666 -0.3533 0.1881 -2.4718 0.2855 -0.9166 -0.3620 0.7123 4.1288 2.2896 3.1922 3.7898 5.4248 1.3510 4.2054 4.5707 2.3069 2.4321 1.4956 1.1031 2.4362 3.7469 0.1821 -2.5573 -2.8468 -2.9251 0.9079 -1.0034 2.2359 -4.6399 -3.6791 -3.7296 -6.0066 -3.4881 -3.7601 2.4367 5.9799 -0.7694 0.6052 -1.8820 3.4177 2.8388 0.5361 2.1149 -1.7531 -1.8242 -1.0314 0.0287 -1.2535 1.0647 2.8924 5.0112 0.2756 3.7525 3.1888 2.2637 2.8531 2.7699 1.1703
-6.0791 -5.6754 -5.6354 4.2502 8.1053 0.5364 0.5141 -0.8479 3.9805 -7.3145 -5.3656 -3.6259 3.7035 6.8240 -1.3430 1.6425 -2.4577 2.8228 -3.4272 -3.1091 -3.2942 -3.9999 -4.0777 -4.3135 -4.9320 -4.5555 -2.1623 1.8887 -0.1558 0.8745 -3.8340 -2.8602 -0.9236 3.2775 1.0019 2.5932 -1.4047 -2.8881 -0.5087 -2.8400 -1.1207 0.3093 -0.3322 -2.3278 0.0883 -1.6941 -0.5367 0.9751 3.9799 2.1759 3.0748 4.6912 5.5874 2.0107 4.6993 4.4896 2.7897 2.5565 2.2649 0.6551 3.2410 4.5879 0.3007 -3.6182 -3.8117 -1.9624 0.6589 -0.5556 1.6643 -4.9682 -4.8888 -3.5825 -6.1499 -5.2767 -4.1871 3.9598 6.8942 -0.0649 0.9961 -1.4213 2.8489 2.5703 1.0436 1.4476 -2.7079 -2.2377 -0.4274 -0.4804 -1.1107 0.8802 3.9534 5.6409 0.7527 3.9725 3.3095 2.3509 3.2268 3.3557 1.0753
-4.3608 -4.6771 -4.8190 4.2444 6.4536 2.5151 1.0034 -1.4382 4.6676 -3.7034 -2.4217 -5.2036 3.5531 7.5690 0.5809 1.8999 -3.1245 3.4204 -5.5397 -3.2271 -0.9329 -5.5030 -3.8622 -2.3123 -4.0881 -1.9268 -2.3146 2.4344 -0.8104 1.6372 -3.2084 -3.2426 -0.4913 2.0781 0.4084 -0.4921 -2.3363 -1.5582 1.0174 -0.8756 -2.9634 -0.3104 -1.2929 -1.0970 1.7298 0.2434 -2.4889 0.4756 2.0971 1.6323 -1.2686 2.8835 5.1599 -0.8199 2.4929 4.0318 -1.4411 2.8339 1.6594 1.4458 3.2857 4.0552 1.3348 -4.2798 -2.3826 -0.8765 1.1262 -1.0756 2.3583 -4.7817 -2.9054 -3.1418 -4.2612 -3.2467 -4.3728 3.7070 6.4523 1.2404 1.3869 -2.0184 3.5027 2.4014 0.4257 0.8142 -2.1191 -2.5207 -0.0543 0.0438 -1.6214 1.4867 3.2885 5.1747 0.5830 2.4741 2.7871 -0.6912 2.8724 2.7994 0.7325
-6.3706 -3.4846 -4.9734 3.0005 6.4395 -1.5690 0.9361 -1.9055 3.5087 -4.1153 -3.7547 -5.6782 4.0669 7.6310 0.1380 -0.1965 0.0084 3.9987 -4.9465 -4.8620 -1.1816 -5.7102 -4.7182 -2.4861 -3.3685 -4.4378 -2.9183 1.8765 -0.5394 1.1706 -3.7465 -2.7895 -1.2397 3.6061 0.6446 2.4968 -1.5631 -3.0192 -0.1152 -2.7669 -0.9203 -0.1891 -0.5488 -2.4474 0.5619 -1.6738 -0.3049 0.5355 4.3785 1.8347 2.8001 4.8180 5.2268 1.5448 5.0014 4.1447 2.3242 2.5089 1.8575 0.7038 3.0353 4.1944 0.2110 -3.6085 -4.1944 -1.4376 0.4733 -0.4132 1.7219 -4.6907 -4.5846 -3.5206 -4.9654 -3.9534 -4.7195 3.6230 6.4976 -0.3353 0.3492 -0.7281 3.1882 2.7039 0.6544 1.4983 -2.7307 -2.2297 -0.4918 -0.6074 -1.0341 0.9122 3.8130 5.2617 0.4866 4.2051 2.9546 2.0752 3.2138 2.9711 0.9787
-7.1486 -4.2715 -4.2310 3.9046 7.7697 0.6996 1.6503 -2.7950 3.7337 -5.1780 -4.0324 -5.5386 2.8136 6.9613 2.6057 0.2204 -1.3039 4.6899 -4.5303 -3.4465 -1.0556 -5.7113 -3.2410 -1.9833 -3.6784 -3.0814 -3.2371 2.5024 -0.5654 2.1623 -2.1833 -3.4493 -1.3989 2.7509 0.4545 -0.0853 -1.8744 -1.6639 0.2451 -0.0364 -3.0333 -0.5230 -1.1002 -1.1020 1.1913 0.7897 -2.4555 0.5192 2.8891 1.6155 -0.9425 3.1780 5.2348 -0.6458 3.0973 4.0277 -1.2358 2.8041 1.9143 1.8510 3.0842 4.3323 1.6358 -3.3788 -2.7744 -1.7802 1.0461 -0.8777 2.4620 -5.1375 -3.1470 -3.3227 -5.7288 -3.8037 -4.3875 3.2989 6.7518 1.4122 0.9132 -1.6573 3.7452 2.6721 0.5978 1.2505 -1.3184 -2.6523 -0.6729 0.2781 -1.5400 1.3647 3.1798 5.3905 0.8050 2.9799 2.8433 -0.4013 2.9516 2.9997 1.0685
-6.1246 -2.4816 -4.9246 4.3465 7.4041 0.4338 0.9787 -1.2721 4.8185 -3.9052 -3.1210 -5.4934 3.4121 6.6428 2.4419 1.8249 -3.0173 3.6188 -4.9415 -3.8966 -0.9568 -5.6317 -3.4126 -2.2222 -3.2982 -3.7740 -2.6864 2.4142 -0.8327 1.7076 -3.1873 -2.2564 -0.8694 2.2100 0.3376 -0.4647 -0.9350 -2.7233 -0.1393 -2.4239 -1.3275 1.1653 0.1033 -2.4093 0.6553 -1.2924 -0.9511 1.9911 2.2726 1.5418 -1.2699 2.9597 5.0956 -0.8569 2.6374 3.9444 -1.4758 2.8745 1.6360 1.4736 3.3382 4.0323 1.3248 -3.4628 -3.6224 -1.1802 1.1263 -0.9734 2.5011 -4.5966 -3.4310 -3.2388 -4.7824 -3.0385 -4.5429 3.7068 6.4374 1.1873 1.3590 -1.8888 3.6717 2.4600 0.3863 0.8566 -2.2607 -2.1921 0.1479 -0.0670 -1.4497 1.7381 3.3242 5.1396 0.5547 2.6132 2.7133 -0.7034 2.9474 2.7604 0.7363
-3.7108 -3.4518 -5.5066 4.5182 7.3752 0.3940 1.7585 -2.8258 3.6259 -5.9627 -2.8123 -5.0888 3.6472 6.6317 2.4358 0.6768 -1.2703 4.8878 -5.0047 -3.7608 -0.9156 -5.6825 -3.3693 -2.2186 -3.3859 -3.9311 -2.6657 2.3128 -0.7827 1.7906 -3.1387 -2.2453 -1.0189 2.2046 0.3476 -0.4138 -0.9874 -2.7637 -0.0612 -2.4749 -1.1543 0.9712 0.0074 -2.4261 0.7778 -1.3862 -0.7591 1.8455 2.3276 1.5357 -1.2370 3.1226 5.0718 -0.8618 2.7733 3.9230 -1.4704 2.8823 1.6537 1.5149 3.4310 4.0291 1.3398 -3.5156 -3.6123 -1.1828 0.9886 -0.8620 2.5307 -4.6742 -3.5840 -3.2410 -4.8627 -3.2517 -4.5627 3.8916 6.4190 1.1715 1.1135 -1.6478 3.8088 2.4307 0.4108 0.9115 -2.2920 -2.1281 0.0614 -0.1809 -1.3514 1.7427 3.4673 5.1254 0.5548 2.6972 2.7041 -0.6821 3.0077 2.7628 0.7622
-4.9895 -1.1887 -4.9473 3.5185 7.5424 0.2740 1.8518 -2.7977 3.9354 -5.1958 -3.4904 -5.5162 2.5995 6.7214 2.2629 0.5695 -1.2045 4.9371 -4.7933 -3.9053 -1.1745 -4.8802 -4.1939 -2.6654 -4.1121 -1.9498 -2.3315 2.4861 -0.8045 2.0354 -2.4975 -3.2252 -1.1529 2.6470 0.1491 -0.2450 -2.0276 -1.6142 0.6242 -0.5058 -3.4203 0.0879 -1.1493 -1.0924 1.4974 0.4471 -2.8512 1.0194 2.7665 1.2848 -1.1395 2.9327 4.9204 -0.9588 2.8931 3.6930 -1.5104 2.7341 1.6697 1.6429 2.9426 4.0861 1.3486 -3.8353 -2.7336 -1.0580 1.0870 -0.9959 2.5904 -4.4427 -2.9670 -3.3213 -4.8878 -2.6433 -4.5847 3.0275 6.5074 1.0484 1.1264 -1.6522 3.9440 2.5907 0.3347 1.0865 -1.7060 -2.8410 -0.0933 0.1461 -1.7242 1.6927 2.9681 5.1225 0.4859 2.8433 2.5311 -0.6391 2.8454 2.7328 0.8248
-4.4945 -0.9176 -4.9261 2.3997 7.5133 -0.0543 0.3386 -0.7905 4.9217 -6.4605 -2.2499 -4.7960 3.0010 6.8224 2.0997 1.3631 -2.7338 4.3119 -4.3369 -4.3242 -1.6085 -5.3429 -3.8265 -2.6252 -3.3834 -2.4650 -2.7912 2.4293 -0.7245 2.3056 -2.0790 -3.7091 -1.2382 2.8889 0.0870 0.0135 -1.8629 -1.9016 0.4194 -0.1283 -3.5557 0.0727 -1.1151 -1.2714 1.3437 0.6762 -2.8783 1.0688 3.0956 1.1652 -0.9340 3.1740 4.8068 -0.9877 3.2443 3.5443 -1.4489 2.5175 1.7345 1.7562 2.6130 4.1355 1.3065 -3.3787 -3.1616 -1.4405 0.9784 -0.9706 2.6781 -4.5870 -2.9185 -3.4787 -5.2484 -2.0910 -4.3652 2.7461 6.5297 0.8537 0.9267 -1.6277 4.0311 2.5984 0.3567 1.2992 -1.3537 -3.0982 -0.2386 0.2064 -1.7779 1.6873 2.8496 5.1083 0.4025 3.0172 2.4447 -0.5263 2.7073 2.7455 0.8877
-6.4395 -5.7963 -4.1015 4.6190 6.4995 3.1903 1.7966 -3.1605 2.7590 -6.4604 -5.6216 -1.7281 3.2131 7.7162 1.7631 0.5597 -1.9040 4.1992 -3.6614 -2.4530 -3.7905 -4.5988 -3.5818 -4.1745 -4.3851 -3.5313 -1.7893 2.5338 -0.7116 1.5193 -3.0553 -1.5096 -1.7236 2.5541 0.7471 -0.4695 -0.8943 -2.2980 -0.8783 -2.1788 -0.5865 0.2533 0.1204 -2.1561 -0.0021 -1.0753 -0.4111 1.1735 2.6731 2.0477 -1.0946 3.3431 5.5041 -0.1697 3.0648 4.4469 -0.9541 2.9394 1.7846 1.6913 3.3313 4.1961 1.9116 -3.2082 -2.7663 -2.3740 1.1418 -0.9947 2.0442 -4.9137 -4.2620 -2.9297 -5.9296 -5.1845 -2.8260 3.7668 6.5847 2.1055 1.1195 -2.0443 3.1204 2.6565 0.6192 0.8656 -2.1168 -1.5179 -0.7143 0.0309 -1.1705 1.0681 3.4725 5.3787 1.2771 2.9195 3.1359 -0.3441 3.0614 3.0007 1.1226
-5.4514 -1.3108 -4.3662 2.7068 7.5466 0.2632 1.8630 -3.0051 3.7566 -6.6702 -2.5749 -2.7623 3.6827 6.6230 2.1795 0.5699 -1.5236 4.9045 -2.1746 -3.6509 -3.0874 -3.2293 -3.0363 -3.9928 -4.2800 -4.0981 -2.1262 2.4564 -0.8796 1.9712 -2.8760 -2.4374 -1.1631 2.4758 0.1201 -0.2868 -0.8078 -3.0531 -0.0150 -2.2126 -1.2332 0.7381 0.1578 -2.7103 0.8578 -1.1640 -0.8467 1.6578 2.5437 1.2648 -1.1719 2.9299 4.8780 -0.9827 2.7722 3.6612 -1.5340 2.6489 1.6211 1.6137 2.8536 4.0480 1.3271 -2.8541 -3.7488 -1.7310 1.0915 -1.0842 2.5951 -4.5160 -3.3897 -3.3884 -5.5683 -2.4891 -3.4404 3.1268 6.4607 1.0101 1.1347 -1.8693 3.8755 2.5106 0.2865 1.0478 -2.0573 -2.3014 -0.0635 -0.0146 -1.5441 1.7125 2.9665 5.0780 0.4618 2.6669 2.5034 -0.6632 2.7184 2.6951 0.8026
-7.0823 -5.2578 -1.5122 4.2029 8.0315 1.0589 0.4827 -1.5878 3.0349 -7.4112 -5.1928 -3.8669 3.7608 6.8352 -0.9026 -0.7566 0.3248 3.0518 -3.1354 -5.1522 -3.6191 -4.5013 -4.8166 -4.1883 -4.4633 -4.2106 -1.8703 2.0217 -0.2913 0.9479 -2.5517 -3.0204 -2.7459 3.3109 0.8233 2.7553 -0.8699 -3.0650 -0.9952 -2.1397 -1.0611 -1.4914 -0.0927 -2.3932 -0.1249 -1.2934 -0.3367 -0.5653 3.9679 1.9911 3.3126 4.6606 5.4556 2.4196 4.6612 4.3248 3.1495 2.6899 2.1436 0.8172 3.3037 4.5039 0.6087 -3.0286 -4.3088 -2.3630 0.5160 -0.2305 1.0889 -5.3114 -4.4318 -3.0374 -6.5824 -4.9582 -2.8978 3.9684 6.8460 0.3861 0.0017 -0.4494 2.4832 2.6928 0.8920 1.5613 -1.9629 -2.3811 -1.6758 -0.2977 -0.9662 0.0865 3.9676 5.5524 1.1388 3.9763 3.1514 2.6319 3.2952 3.2356 1.3228
-6.1216 -5.4005 -5.2427 6.8203 6.8073 1.1306 2.5267 -1.6146 0.5345 -5.8875 -3.0724 -4.8223 6.2576 5.8585 -0.9342 1.9981 -1.5723 2.7491 -4.3664 -5.7574 -1.3205 -5.1714 -5.9136 -2.5942 -4.9086 -3.5771 -2.1247 0.8994 0.6871 0.2265 -3.7436 -3.8857 -0.0332 0.8695 2.4218 2.0216 -1.6115 -2.8748 -0.7028 -2.7832 -2.2060 1.3098 -0.5947 -2.0395 -0.4214 -1.6740 -1.3315 1.6300 1.4464 3.5931 2.6495 4.1626 5.9509 2.0992 3.0952 5.3841 2.6904 2.6666 2.4519 0.3897 4.3782 4.2009 0.3885 -3.8277 -4.3421 -1.3803 0.5678 -0.4395 1.1777 -5.5612 -4.5624 -2.9834 -5.8306 -4.2602 -4.3065 6.0099 6.0167 0.3371 1.7512 -1.2703 1.5899 1.4549 1.8677 0.9434 -2.7719 -2.9320 0.1778 -0.6110 -1.2593 0.8081 4.8150 5.3520 0.9396 2.5487 4.1608 2.1290 3.1965 3.5585 0.9442
-6.3007 -4.4087 -0.3562 5.3333 7.7468 0.9178 0.9026 -2.0943 2.4838 -7.3757 -4.0283 -2.4452 3.9150 7.0234 -0.7989 -0.6689 -0.5619 3.0987 -3.4892 -4.9928 -4.1616 -4.9762 -4.7860 -3.9265 -3.8484 -4.7876 -1.8087 1.8320 -0.1113 0.6211 -2.6097 -3.0861 -3.0507 2.6425 1.0255 2.6803 -0.6725 -3.0305 -1.5767 -2.3916 -1.3235 -1.4962 0.0634 -2.3677 -0.6621 -1.5899 -0.6018 -0.5305 3.1696 2.1885 3.3641 4.2679 5.5731 2.5961 3.9837 4.4851 3.3352 2.7204 2.2527 0.5927 3.6078 4.5332 0.4729 -2.8218 -4.4895 -2.8920 0.3702 -0.3807 0.9295 -5.1400 -4.8777 -2.4804 -6.2850 -4.4135 -1.8611 4.4511 6.8289 0.3753 0.1255 -1.0034 2.2793 2.3792 1.0639 1.3607 -1.9798 -2.5143 -1.9660 -0.4058 -1.0949 -0.1230 4.0891 5.5984 1.1479 3.4593 3.3034 2.6712 3.2428 3.3316 1.2091
-5.7049 -2.2441 -4.5505 4.7980 7.5502 1.3411 0.8831 -0.9688 4.2373 -7.1877 -3.1911 -2.9485 4.2467 6.3299 3.2600 1.9777 -2.6876 3.2116 -2.7125 -4.5782 -2.7569 -3.7224 -4.1370 -3.8020 -4.8251 -4.4472 -1.6987 2.2683 -0.6718 1.0485 -3.1707 -2.8022 -1.2277 1.9454 0.9897 -0.7537 -1.0117 -3.2069 -0.2249 -2.4777 -1.4583 0.5786 0.0269 -2.6989 0.4602 -1.3578 -0.9092 1.3187 2.0499 2.3385 -1.2729 3.1958 5.6259 -0.2127 2.6739 4.6769 -1.0105 2.9491 1.7503 1.3225 3.6387 4.0836 1.6458 -3.3511 -4.2054 -1.4279 1.0360 -0.8622 1.9100 -5.0153 -4.1500 -3.1192 -6.0025 -3.2469 -3.4716 4.2679 6.4317 1.9592 1.3684 -1.6303 3.1571 2.3530 0.7079 0.4970 -2.3201 -2.5661 -0.1683 -0.1398 -1.4766 1.2316 3.6872 5.3300 1.1287 2.5757 3.3156 -0.5131 3.0576 3.0084 0.8509
-7.6955 -4.6266 -2.6562 5.2397 7.5013 2.0883 2.4669 -2.7409 2.1318 -6.7082 -5.4052 -4.6738 4.8683 5.9520 3.8034 1.5215 -1.5721 3.8410 -3.2592 -3.4437 -3.1775 -4.0731 -4.5643 -3.7933 -5.0850 -3.8759 -1.7348 2.3259 -0.4193 0.5811 -3.4599 -2.2008 -1.1612 1.7693 1.5724 -0.7862 -1.1026 -2.6015 -0.7543 -2.4503 -1.3117 0.7825 0.0262 -2.2343 -0.1227 -1.2284 -0.8811 1.4396 1.8387 3.0007 -1.0307 3.2522 5.9917 0.4932 2.5743 5.2353 -0.3894 3.1555 1.8795 1.1824 3.9786 4.0836 1.8569 -3.6103 -3.5112 -1.7018 1.2414 -0.7809 1.5796 -5.2375 -4.7157 -2.9235 -6.4820 -4.9290 -3.4890 4.7252 6.3056 2.5554 1.7449 -1.7162 2.6466 2.3713 1.0378 0.2919 -2.4019 -2.1462 -0.2728 -0.0289 -1.2995 0.9921 3.9685 5.4128 1.6246 2.5250 3.7967 -0.1909 3.2294 3.2067 0.9677
-7.8131 -4.8740 -3.3694 6.6761 7.0054 1.6766 1.6338 -1.1628 2.9770 -6.5489 -3.1574 -4.4250 6.6471 5.7504 -0.2966 2.6703 -1.8287 1.0562 -3.8716 -6.0442 -1.9285 -5.3596 -5.8023 -2.1399 -4.1162 -3.9477 -3.0124 1.1329 0.6386 0.0734 -3.4067 -4.0554 -0.7183 0.7217 2.4987 1.7060 -1.1942 -3.0477 -1.1157 -2.6484 -2.3198 0.6773 -0.2318 -2.1893 -0.7216 -1.6057 -1.4148 1.1127 1.1419 3.7386 2.3348 3.9216 6.0942 2.1997 2.7486 5.5603 2.5884 2.8064 2.4635 0.4705 4.4611 4.2570 0.6653 -3.2347 -4.6640 -1.9989 0.6506 -0.4757 0.9749 -5.4422 -4.5107 -2.8061 -6.5217 -4.1338 -3.5733 6.0892 6.0751 0.8380 1.7640 -1.2439 1.6284 1.5225 1.8723 0.8222 -2.4640 -3.1020 -0.4002 -0.4346 -1.3486 0.4528 4.7890 5.4406 1.2246 2.3201 4.2989 2.0054 3.1965 3.6290 1.0219
-6.4350 -5.8291 -5.1148 6.9268 6.8721 1.5306 2.4915 -1.4764 0.2620 -7.6702 -4.3278 -3.7434 6.3533 6.0934 -0.6012 2.0433 -1.5240 2.4939 -3.4288 -5.5080 -2.0467 -4.4061 -5.9443 -3.1163 -5.2930 -3.9984 -2.0255 0.9315 0.8966 0.1677 -3.5517 -3.8415 -0.3808 0.9485 2.4681 2.1035 -1.5518 -2.6222 -1.0362 -2.7851 -2.0652 0.9716 -0.5609 -1.7781 -0.6994 -1.6998 -1.1811 1.3524 1.5412 3.5786 2.8187 4.2765 5.9469 2.4440 3.2068 5.3439 2.9932 2.7312 2.6170 0.4613 4.4565 4.3510 0.5857 -3.7982 -4.0637 -1.7671 0.5759 -0.2985 1.0241 -5.5943 -5.1313 -2.8951 -6.5876 -5.0324 -3.8492 6.1095 6.1511 0.6792 1.7579 -1.1690 1.3584 1.5177 2.0006 0.9768 -2.7264 -2.7543 -0.1823 -0.6088 -1.0706 0.5717 4.9119 5.4458 1.2303 2.6427 4.1788 2.3348 3.2748 3.6722 1.0981
-7.8790 -5.6637 -1.6893 5.8410 7.2890 3.0282 2.7482 -2.3771 0.8133 -5.9564 -6.4973 -0.5673 6.8577 5.7926 1.5456 1.4028 -2.1371 2.6348 -5.0638 -2.8941 -3.4000 -6.1959 -3.8591 -3.1205 -4.2284 -4.6372 -1.9941 1.9827 0.2416 0.0728 -2.7737 -2.9342 -2.8772 0.7705 2.2999 0.8066 -2.2432 -1.8558 -0.7395 -0.5265 -2.4907 -2.3283 -1.3224 -1.3385 0.0933 0.4637 -1.9173 -1.4413 0.8008 3.6760 1.2642 3.2343 6.2532 2.1047 2.0335 5.6763 1.9135 3.1931 2.2454 0.9348 4.5010 4.2178 1.5696 -4.0568 -3.1594 -2.3006 1.0232 -0.7450 0.7057 -5.6069 -4.9532 -2.3561 -6.3882 -5.7114 -1.5033 5.7882 6.2089 2.1668 1.7270 -1.8107 1.5012 1.9139 1.6029 0.6678 -1.8261 -2.4905 -1.9829 0.0867 -1.3688 -0.2702 4.4829 5.5192 1.9266 1.9774 4.2848 1.4975 3.2388 3.5338 1.3238
-5.9974 -6.3008 -4.7681 6.6257 7.0597 1.1400 1.4094 0.0173 -1.5373 -3.9076 -6.9825 -3.8613 6.3458 5.6291 -0.6920 2.4714 -1.2108 0.0594 -6.0449 -3.5536 -1.4712 -6.3586 -4.5554 -2.5610 -4.1484 -4.9752 -1.7326 0.1905 1.4553 0.5971 -4.1819 -3.2158 -0.0686 1.2327 2.1864 2.7404 -2.8066 -1.3512 -0.7799 -2.0907 -2.8598 0.9736 -1.7349 -0.5631 -0.5786 -0.9475 -1.9976 1.2056 2.2692 2.9087 3.4547 5.1365 5.0411 2.7380 4.2464 4.3391 3.4640 2.1395 3.0275 0.6523 4.0722 4.5226 0.5872 -4.5307 -3.5388 -1.4123 0.4434 -0.0391 0.6332 -5.2414 -5.4939 -2.5546 -4.9660 -6.2584 -3.6740 6.0375 5.9669 0.5304 1.5494 -0.4850 -0.2872 1.1883 2.2165 1.3959 -2.9604 -2.5809 -0.0141 -0.7642 -0.8933 0.4569 5.0453 5.1427 1.2855 3.1778 3.6331 2.7765 3.1007 3.7092 1.3023
-6.6539 -6.5583 -3.2927 3.9665 6.0970 4.2651 1.8406 -2.7419 2.2731 -6.0537 -6.2407 -1.0133 5.2619 7.2111 2.6607 0.4486 -1.4923 3.5695 -4.4277 -2.8416 -3.8037 -5.1876 -4.1512 -3.9270 -4.4311 -3.8955 -1.6733 2.3509 -0.4861 0.6974 -3.4784 -1.6885 -1.9766 2.4056 1.4263 -0.8707 -1.2407 -2.3751 -1.2047 -2.3736 -0.4221 -0.3320 -0.1662 -2.1322 -0.4271 -1.2124 -0.1507 0.4882 2.6557 2.8240 -1.1642 3.7100 5.8583 0.5525 3.3063 5.0639 -0.4560 3.0894 1.8218 1.4240 3.8128 4.0325 2.1947 -3.5833 -2.9869 -2.5484 1.0090 -0.7147 1.3576 -5.0579 -4.7979 -2.6289 -5.8955 -5.8163 -2.2275 4.4315 6.2536 2.9728 1.0536 -1.6678 2.5204 2.5855 0.9479 0.3738 -2.4117 -1.5088 -1.1224 -0.1500 -0.9762 0.4613 3.9759 5.3361 1.8879 3.0895 3.6502 -0.1956 3.3304 3.1220 1.1649
-7.5886 -6.0800 -1.8465 6.1132 7.1480 2.4356 3.0096 -2.3328 0.8738 -5.4451 -6.9048 -1.2329 5.3146 5.9051 4.2496 1.3577 -2.4710 2.4427 -5.2967 -2.5490 -2.8821 -6.3109 -3.6611 -2.7144 -4.1262 -4.5326 -2.2575 0.9145 0.3547 1.5690 -2.9435 -2.5039 -2.7552 1.1649 2.1872 -0.0859 -2.1451 -2.0336 -0.4730 -0.7362 -1.7556 -2.4241 -1.1474 -1.6365 0.3392 0.3329 -1.3170 -1.5522 1.7251 3.4595 -0.4896 3.9165 6.0439 0.8305 3.0964 5.4155 -0.0304 2.4926 2.2810 1.9442 3.9333 4.1998 2.4530 -4.0928 -3.0224 -2.0940 1.2493 -0.8145 0.6694 -5.5289 -4.8712 -2.4842 -6.0907 -5.9549 -1.8337 5.2947 6.1709 2.9723 1.8367 -1.9577 1.4433 1.5364 1.6127 1.0731 -1.9233 -2.1231 -1.9112 0.1452 -1.2639 -0.2207 4.3518 5.4278 2.0795 2.5895 4.0996 0.3168 3.0005 3.4798 1.5955
-5.1617 -7.7218 -2.7154 6.5194 6.7189 1.0674 1.5377 0.7043 -2.1380 -2.9990 -6.7746 -2.4246 7.0710 4.5859 0.2792 1.9383 -1.3410 -1.2099 -6.1683 -3.8414 -1.1650 -6.1892 -5.1399 -1.9428 -4.0684 -4.0874 -2.2529 1.0650 0.0872 1.2420 -4.6499 -2.0690 -1.0096 0.9497 2.0615 2.7331 -2.3843 -2.2756 -0.0805 -3.2072 -0.2123 -1.0477 -1.1718 -1.7268 0.1240 -1.9140 0.3873 -0.7977 1.5031 3.3066 3.2301 4.3766 5.4699 2.6598 3.2340 5.0228 3.2125 2.7913 1.9205 1.1566 4.5112 3.6541 1.0135 -4.7017 -3.4928 -1.0036 0.4412 0.2388 -0.1264 -4.8657 -5.2779 -2.5452 -4.2649 -6.5263 -2.5423 6.2517 5.3695 0.9258 1.3718 -0.2588 -1.1970 1.5671 1.3940 1.7422 -3.4226 -1.5058 -0.7524 -0.9176 -0.3463 -0.2688 5.0147 4.7913 1.5367 2.6366 3.8014 2.7009 3.3058 3.0836 1.5962
-6.8833 -3.0230 -3.8428 4.6698 7.4458 2.8866 1.0513 -0.4914 3.5747 -7.2895 -4.5062 -2.0277 5.8469 5.4874 3.4004 1.9977 -2.3083 2.5700 -2.8371 -4.1067 -3.1508 -4.1655 -3.8409 -3.8305 -4.5015 -5.3236 -1.9842 2.0469 -0.2903 0.3169 -3.4945 -3.4803 -0.8945 1.6818 1.8121 -0.9488 -1.0718 -3.3346 -0.4800 -2.6046 -1.5708 0.1549 -0.0257 -2.6346 0.0001 -1.4848 -0.8348 0.7026 1.8851 3.2382 -1.1210 3.6220 5.9908 0.5161 2.8785 5.3470 -0.4028 2.9496 1.9194 1.1181 3.8966 4.0157 1.9494 -3.1923 -4.5817 -1.7518 0.8945 -0.5959 1.2466 -5.1544 -4.6288 -3.0970 -6.4278 -4.1141 -2.9132 4.9180 6.0963 2.7153 1.3787 -1.2574 2.5042 2.1938 1.1771 0.1210 -2.4126 -2.7654 -0.4308 -0.2395 -1.3395 0.6349 4.1289 5.3227 1.7096 2.6000 3.9326 -0.2174 3.1446 3.2433 0.9716
-7.2677 -5.3726 -0.8155 5.9833 7.0903 3.0269 2.6634 -2.3381 0.0940 -5.3134 -6.7183 -0.6320 7.0214 5.3001 1.9403 1.8266 -2.1164 2.2016 -5.0007 -3.2226 -3.7876 -6.0584 -4.0080 -3.0325 -3.8961 -4.6849 -2.2487 1.8089 0.3320 -0.3602 -3.8133 -2.2853 -1.9507 0.7485 2.4104 0.4845 -1.4025 -2.0147 -2.1049 -2.5812 -1.7829 0.0004 -0.2532 -1.5992 -1.5416 -1.3497 -1.3076 0.5980 0.8416 3.7320 1.0684 3.3833 6.0810 2.1847 2.1597 5.5916 1.9162 3.1604 2.1981 0.6649 4.5545 4.0279 1.5232 -3.7581 -3.3288 -2.9219 1.0219 -0.6676 0.4603 -5.3135 -5.0174 -2.2927 -5.8777 -5.7315 -1.2560 5.9275 5.8992 2.3249 1.8642 -1.7712 1.0283 1.8537 1.6648 0.3019 -2.6088 -2.1377 -1.2962 -0.2299 -1.1989 -0.1418 4.5973 5.2941 1.9913 2.0425 4.2434 1.3903 3.2655 3.4388 1.1822
-6.8587 -5.5920 -4.9132 5.3237 7.3359 3.1359 2.4756 -2.1759 1.9054 -7.4920 -5.8969 -2.6412 6.3549 5.2527 3.3953 1.4223 -0.8692 3.4447 -3.9128 -3.0885 -2.8878 -4.6626 -3.9584 -3.8818 -4.9511 -4.8493 -1.6794 2.0169 -0.0128 0.0857 -3.6796 -3.2536 -0.4729 1.5009 2.2542 -0.7660 -1.2486 -2.9956 -0.6438 -2.6355 -1.3912 0.5204 -0.1297 -2.3473 -0.2603 -1.4318 -0.7121 0.9556 1.7191 3.6879 -0.7764 3.7425 6.1866 0.9346 2.8471 5.6762 0.0694 3.1100 2.0605 1.0404 4.2590 4.0198 1.9657 -3.6914 -3.9949 -1.6904 1.0075 -0.4950 1.1019 -5.3264 -4.9819 -3.0820 -6.5657 -5.4749 -3.4433 5.4207 5.9853 2.8528 1.6314 -1.1860 2.2816 2.1568 1.4704 0.1091 -2.5596 -2.4737 -0.2739 -0.2182 -1.1704 0.5963 4.4549 5.3539 1.8984 2.5957 4.2449 0.0784 3.3246 3.3912 1.0408
-6.7560 -5.8746 -4.8752 6.7185 5.2726 3.0593 2.5247 -2.1482 1.8159 -7.6213 -5.7821 -2.6620 5.2649 7.0773 3.4101 1.4494 -0.9087 3.3950 -3.7573 -3.2976 -2.9602 -4.5652 -4.1878 -3.8899 -5.0956 -4.7373 -1.6198 1.9815 0.0515 0.0463 -3.7511 -3.1268 -0.5346 1.4098 2.3502 -0.6895 -1.2955 -3.0159 -0.5971 -2.6466 -1.2780 0.4039 -0.1624 -2.3954 -0.2056 -1.4317 -0.6317 0.8543 1.6281 3.7850 -0.6637 3.7415 6.2301 1.0244 2.7996 5.7484 0.1917 3.1168 2.0976 1.0142 4.3156 4.0239 1.9424 -3.7430 -4.0362 -1.6327 1.0047 -0.4899 1.0655 -5.3852 -5.0166 -3.0179 -6.6041 -5.5221 -3.4218 5.5257 5.9345 2.8357 1.6575 -1.1910 2.2230 2.1102 1.5361 0.1216 -2.5934 -2.4105 -0.3190 -0.2272 -1.1592 0.5672 4.5035 5.3595 1.9123 2.5513 4.3151 0.1587 3.3325 3.4279 1.0474
-7.4488 -2.8084 -2.8622 6.6590 6.5641 1.8774 3.3139 -1.1208 0.6334 -8.0352 -5.1130 -2.8560 6.5760 4.6688 3.2440 1.9876 -1.8351 2.3461 -3.7978 -5.7836 -2.0501 -5.3049 -5.9075 -2.1960 -4.6936 -3.6013 -2.3783 0.4580 0.6003 1.4859 -2.2980 -3.9730 -2.2833 0.2640 2.9210 0.6311 -1.5961 -3.0298 -0.1404 -0.8015 -2.1513 -2.2492 -0.7830 -2.2008 0.5440 0.0980 -1.2845 -1.5133 0.7916 4.2640 0.4699 3.8097 6.1559 1.2495 2.5728 5.9055 0.7805 2.3248 2.2871 1.7408 4.1681 3.8655 2.0530 -3.5457 -4.3270 -1.6958 1.0789 -0.4366 0.5744 -5.7991 -4.5408 -2.2644 -7.0828 -4.2528 -2.6727 6.0054 5.4468 2.3644 2.1351 -1.2276 1.2966 0.9991 1.9657 1.2292 -1.6488 -2.9673 -1.5970 0.1201 -1.3033 -0.1673 4.6220 5.1255 1.8891 2.0199 4.5685 0.9271 2.8310 3.5258 1.5894
-4.5491 -7.4519 -3.6583 6.6169 6.8699 1.6092 1.7888 0.3724 -1.6916 -5.2807 -7.4798 -1.3954 5.7106 6.1775 -0.4335 -0.0306 1.7181 -1.9837 -4.3684 -3.1982 -2.7626 -4.3698 -4.5842 -3.3679 -5.6631 -4.6126 -1.3498 -0.0895 1.5438 0.9952 -3.6130 -3.7481 -0.5011 1.5611 1.5237 2.8527 -3.0950 -1.3466 -0.4441 -1.4104 -3.0324 -0.0192 -2.1813 -0.3627 -0.3373 -0.4353 -1.9689 0.1351 2.7896 2.0013 3.4606 5.4207 4.4418 2.8213 4.7361 3.4741 3.4601 1.8956 3.0997 1.0393 3.8354 4.5875 0.9535 -4.7429 -3.4010 -1.3038 0.2283 0.4037 0.0482 -5.2725 -5.3754 -2.5377 -5.0614 -6.7400 -2.4360 5.7863 6.0535 0.8638 0.6010 0.9121 -1.3180 1.1363 2.0377 1.6843 -2.6825 -2.7413 -0.3449 -0.7916 -0.6808 -0.0342 4.9760 4.9965 1.5464 3.5109 2.9676 2.8636 3.0436 3.5430 1.5858
-7.4634 -5.0801 -0.9407 7.2205 4.3083 1.3991 2.5824 -0.9094 1.1547 -5.9698 -6.9125 -1.1968 6.7604 6.2882 2.5571 2.5916 -0.7615 -1.1218 -4.4697 -2.9843 -3.0832 -5.8100 -3.5560 -2.6672 -4.2338 -5.3372 -2.9166 0.5392 1.3412 -0.4780 -3.1217 -3.9851 -1.3249 0.2454 3.0076 1.3478 -1.4425 -2.3174 -1.9902 -2.0786 -2.6590 0.3215 -0.5889 -1.3381 -1.6389 -1.1233 -1.6382 0.7035 0.8009 3.9860 2.2656 4.0115 5.5325 3.0374 2.6941 5.2680 3.1235 2.4444 2.7523 0.3542 4.3889 3.9840 1.1715 -3.4505 -4.0490 -2.7134 0.6580 -0.0280 0.1604 -5.6242 -5.0044 -2.5962 -6.2736 -5.7197 -1.6024 6.3370 5.1822 2.0068 2.0293 -0.6122 -0.0477 1.0343 2.4043 0.4403 -2.2464 -2.9817 -0.9730 -0.3995 -0.9987 -0.2341 4.8729 4.8789 2.0567 2.1096 4.2951 2.2148 2.9756 3.6439 1.2105
-7.2175 -6.5037 -1.3967 7.0987 4.5169 3.0074 2.8047 -1.6769 -0.0298 -7.0695 -6.6666 -3.7642 5.8672 6.0896 4.2340 2.1920 -1.3598 2.1400 -4.3327 -3.3465 -3.2378 -5.0328 -4.5656 -3.8043 -4.9538 -4.7390 -1.4155 1.5337 0.7462 -0.6548 -3.8991 -2.6157 -1.0321 0.9775 3.1468 -0.3844 -1.5298 -2.2772 -1.4944 -2.5348 -1.5930 0.5953 -0.3791 -1.6522 -1.1822 -1.3039 -0.8994 0.9220 1.2897 4.4723 0.1172 3.8766 6.1478 2.0624 2.7513 5.9971 1.3390 2.9806 2.3081 0.6984 4.4512 3.7595 2.0092 -3.8654 -3.7761 -1.8587 0.9974 -0.1969 0.4004 -5.4065 -5.3741 -2.6487 -6.5426 -6.1584 -2.6937 5.9368 5.2209 3.2622 2.0412 -1.1324 0.9473 1.7824 2.1060 -0.1034 -2.6463 -2.2833 -0.5543 -0.2642 -0.9122 0.0668 4.7258 5.0160 2.4148 2.3941 4.6719 0.8594 3.2771 3.5300 1.1794

>  <OB_ATOM_TYPES> (1mtwA1)
C.3 N.pl3 O.co2 N.2 N.pl3 O.co2 C.3 C.3 C.3 C.3 O.3 C.ar C.ar C.ar C.ar C.ar C.ar C.ar C.ar C.ar C.ar C.3 C.3 N.pl3 C.2 C.2 C.2 C.ar C.ar C.ar C.ar C.ar C.ar

>  <ENSEMBLE_RMSD> (1mtwA1)
1.449 1.481 1.541 1.566 1.607 1.700 1.760 1.775 1.789 1.834 1.886 1.887 1.902 1.912 1.926 1.936 1.949 2.006 2.084 2.101 2.193 2.202 2.297 2.418 2.433 2.447 2.462 2.553 2.578 2.584 2.609 2.620 2.656 2.714 2.754 2.762 2.796 2.798 2.831 2.884 2.935 2.943 2.964 2.968 2.975 3.038 3.156 3.253 3.259 3.282

$$$$
