
 OpenBabel03071213D

  9  9  0  0  0  0  0  0  0  0999 V2000
   24.1760   16.3180   31.2980 C   0  0  0  0  0
   25.3010   17.2410   28.8530 C   0  0  0  0  0
   20.9280   19.4990   32.3340 C   0  0  0  0  0
   19.8100   19.2370   31.3380 C   0  0  0  0  0
   22.1810   18.8060   31.7080 N   0  0  0  0  0
   20.5270   17.8190   30.3170 S   0  0  0  0  0
   23.8880   17.6840   29.2330 C   0  0  0  0  0
   23.1970   16.8980   30.3430 C   0  0  0  0  0
   22.1400   17.7450   30.9860 C   0  0  0  0  0
  1  8  1  0  0  0
  2  7  2  0  0  0
  3  4  1  0  0  0
  3  5  1  0  0  0
  4  6  1  0  0  0
  5  9  1  0  0  0
  6  9  1  0  0  0
  7  8  1  0  0  0
  8  9  1  0  0  0
M  END
>  <MOLID> (1mupA1)
1mupA1

>  <SMILES_CANONICAL> (1mupA1)
C=C[C@H]([C@H]1NCCS1)C	

>  <FINGERPRINT> (1mupA1)
0000000000000000000000000000000001001010000000000000000000000000001000000001000001000000000000000000000000010000000001000000000000000000000000000000000000000000000000000000000000000000000000000000000000001000000000000000000100000000000000000000010000000000000000000000000000000000000000000000001000010010010000000000100000000000001000000000000000000000010000000000000000000000000000000000000000000001000000000000001000000000000011000000000000000000000000000000000000000000000000000000000000000000000000000000000000000100000000000000000000000000000000000000000000000010000000000000000000000000000000000000000000000000000100000000101000000000000000000000000000000000000000000001000000000000000000000000000000000000000000000000001000000000000001000000000000000000000100000000000000000000000000000000000000000000000000000000000000000000000000000000000000000000000000000000000000000000000000000000000000000000000000000000000000000000000000000000010000000000001000000000010000000000010000000001000000000011000000010000001000000000

>  <MACCS166> (1mupA1)
000000000000000000000000000000000101000000000010000000000000000000000000000000001110000100000001001100010001001000000101100000000010000011001100001010101001010110001000

>  <OB_MW> (1mupA1)
143.077

>  <OB_logP> (1mupA1)
1.7998

>  <OB_PSA> (1mupA1)
37.33

>  <OB_MR> (1mupA1)
47.4827

>  <OB_ATOMIC_CHARGES> (1mupA1)
0.0070284909 -0.0048449546 0.1013099735 0.0777004343 -0.2073061195 -0.1217767622 -0.0241932578 0.0482681494 0.1238140461

>  <MCT_HBD> (1mupA1)
1

>  <MCT_HBA> (1mupA1)
1

>  <ENSEMBLE_TOTAL> (1mupA1)
2

>  <ENSEMBLE_COORDS> (1mupA1)
1.7151 -1.5983 0.5858 2.8401 -0.6753 -1.8592 -1.5329 1.5827 1.6218 -2.6509 1.3207 0.6258 -0.2799 0.8897 0.9958 -1.9339 -0.0973 -0.3952 1.4271 -0.2323 -1.4792 0.7361 -1.0183 -0.3692 -0.3209 -0.1713 0.2738
0.5324 -2.2752 -0.5016 2.5822 0.2191 -1.5973 -1.2852 1.7563 0.1088 -2.4507 1.0199 0.7342 -0.0546 1.2855 0.7384 -1.8465 -0.6757 0.8186 2.0315 -0.3905 -0.5464 0.5884 -0.7605 -0.4942 -0.0976 -0.1789 0.7394

>  <OB_ATOM_TYPES> (1mupA1)
C.3 C.2 C.3 C.3 N.3 S.3 C.2 C.3 C.3

>  <ENSEMBLE_RMSD> (1mupA1)
0.000 1.066

$$$$
