
 OpenBabel03071213D

 20 20  0  0  0  0  0  0  0  0999 V2000
   -2.2920   54.1460  -12.5610 C   0  0  0  0  0
   -6.9550   57.7510  -11.4040 O   0  0  0  0  0
   -6.0280   57.0550   -8.8030 O   0  0  0  0  0
    0.2520   55.6740   -8.9930 O   0  0  0  0  0
   -3.5600   58.8920  -10.5760 O   0  0  0  0  0
   -1.0900   58.8930   -5.1520 O   0  0  0  0  0
   -1.4680   56.4060  -12.4250 O   0  0  0  0  0
   -3.0410   59.5440   -5.7270 O   0  0  0  0  0
   -6.5500   58.7350  -10.4840 C   0  0  0  0  0
   -2.1650   55.4230  -10.5180 N   0  0  0  0  0
   -3.0820   58.0890   -8.0620 O   0  0  0  0  0
   -0.8730   57.0230   -7.3980 C   0  0  0  0  0
   -5.5200   58.1780   -9.4540 C   0  0  0  0  0
   -1.0240   55.9770   -8.4830 C   0  0  0  0  0
   -4.2100   57.7410  -10.0970 C   0  0  0  0  0
   -1.9130   56.5450   -9.6100 C   0  0  0  0  0
   -3.2760   57.0620   -9.0440 C   0  0  0  0  0
   -1.9370   55.4270  -11.8300 C   0  0  0  0  0
   -2.0010   58.9090   -5.9860 C   0  0  0  0  0
   -1.9810   57.9840   -7.1700 C   0  0  0  0  0
  1 18  1  0  0  0
  2  9  1  0  0  0
  3 13  1  0  0  0
  4 14  1  0  0  0
  5 15  1  0  0  0
  6 19  1  0  0  0
  7 18  2  0  0  0
  8 19  2  0  0  0
  9 13  1  0  0  0
 10 16  1  0  0  0
 10 18  1  0  0  0
 11 17  1  0  0  0
 11 20  1  0  0  0
 12 14  1  0  0  0
 12 20  2  0  0  0
 13 15  1  0  0  0
 14 16  1  0  0  0
 15 17  1  0  0  0
 16 17  1  0  0  0
 19 20  1  0  0  0
M  END
>  <MOLID> (1nsdA1)
1nsdA1

>  <SMILES_CANONICAL> (1nsdA1)
OC[C@H]([C@H]([C@@H]1OC(=C[C@@H]([C@H]1NC(=O)C)O)C(=O)O)O)O	

>  <FINGERPRINT> (1nsdA1)
0000000010000000000000000000000010001001000001000101001000000000000000000001000000000000000000011000000000000001000001010000000110000000001110000000000011000001000000000000000000000000000000000000000000001000000000011000000000111000001000000001010000000000000000010000000000000000000000000000000100010000000000001100100000000000001000000000000001000000010000000000000111000000000000001000000000000010100000000000001000000011100000000000000000000000000000100000000000010100000010000011100100001011100100000000100000110100000000000000000000000100100000000000000000000000010000000101000111000001011000000001100000000000000000001110001000000001000000000000000000000000001000000001000000010100000011101010000000010111000000001000000010000000000010000001000000000000000111000000000000000010000101000000000110000000100000000001010000000000000000001100000001000000000000001001000000000000000000010010000100000000000000000100001001000000000000000000010000000100000000010010110000000110101000000000000000000000001000000100101100000001

>  <MACCS166> (1nsdA1)
000000000000000000000000000000000000000000000000000011001000000000000001000100000100000011010010111000010001110000001001001000100011100111111110010011111111111110111000

>  <OB_MW> (1nsdA1)
291.095

>  <OB_logP> (1nsdA1)
-2.6757

>  <OB_PSA> (1nsdA1)
156.55

>  <OB_MR> (1nsdA1)
62.9087

>  <OB_ATOMIC_CHARGES> (1nsdA1)
0.0964260038 -0.2174865591 -0.2174439188 -0.2162012153 -0.216361345 -0.2371373314 -0.2733273699 -0.2371373314 0.2175299812 -0.2003751062 -0.4684024936 0.0517576396 0.2185381098 0.2006636815 0.2261241163 0.1722232936 0.2214770891 0.242015748 0.4208143567 0.216302651

>  <MCT_HBD> (1nsdA1)
6

>  <MCT_HBA> (1nsdA1)
9

>  <ENSEMBLE_TOTAL> (1nsdA1)
50

>  <ENSEMBLE_COORDS> (1nsdA1)
0.6437 -3.1267 -3.3721 -4.0193 0.4783 -2.2151 -3.0923 -0.2177 0.3859 3.1877 -1.5987 0.1958 -0.6243 1.6193 -1.3872 1.8457 1.6203 4.0369 1.4677 -0.8667 -3.2361 -0.1053 2.2713 3.4619 -3.6143 1.4623 -1.2952 0.7707 -1.8497 -1.3292 -0.1463 0.8163 1.1268 2.0627 -0.2497 1.7909 -2.5843 0.9053 -0.2651 1.9117 -1.2957 0.7058 -1.2743 0.4683 -0.9081 1.0227 -0.7277 -0.4212 -0.3403 -0.2107 0.1449 0.9987 -1.8457 -2.6412 0.9347 1.6363 3.2029 0.9547 0.7113 2.0189
0.7806 -2.9596 -3.1873 -4.5446 -0.1330 -2.2458 -3.1548 -0.0392 0.2547 2.5137 -2.0601 0.2580 -1.5942 2.2814 -0.4656 1.9980 0.8287 4.1566 2.1846 -1.0726 -2.7650 0.8856 2.6785 3.4059 -3.4712 0.7520 -1.9769 0.3096 -1.4584 -1.4288 0.1548 1.0161 1.1411 1.9482 -0.2680 1.6783 -2.5081 0.1076 -0.9992 1.6891 -1.0091 0.5340 -1.2583 0.9613 -0.8664 0.6262 -0.6778 -0.3060 -0.1874 0.4221 0.0155 1.1926 -1.7216 -2.4550 1.3288 1.5554 3.2371 1.1068 0.7965 2.0146
0.4986 -3.0408 -3.1753 -4.3918 1.4960 -0.5681 -2.7523 -1.1552 -0.9268 2.9859 -1.8481 0.7246 -0.7566 1.7238 -1.6360 1.4736 1.1046 4.2470 0.8665 -0.6844 -3.2375 0.3350 2.7850 3.1935 -3.3933 1.0566 -1.4746 1.0257 -1.8577 -1.2176 0.0569 0.8263 0.9912 1.9148 -0.1021 1.8877 -2.4023 0.2059 -0.7110 1.9647 -0.9443 0.7870 -0.9796 0.3940 -1.1913 1.0078 -0.8704 -0.2199 0.0066 0.1067 -0.1154 0.8026 -1.7072 -2.5677 0.8640 1.6872 3.1907 0.8731 0.8241 2.0196
1.4098 -3.2904 -3.1114 -3.4672 2.6414 -0.8384 -3.4134 -0.6346 0.4012 3.0248 -1.5433 0.1054 -1.2147 0.9322 -1.9659 1.4560 1.0602 4.0249 2.2223 -1.0487 -2.9442 0.1949 2.6860 3.0202 -3.7462 1.2569 -0.9801 0.6369 -1.8417 -1.4221 -0.2000 0.6417 1.0117 1.9536 0.0239 1.5030 -2.7449 0.4908 -0.1483 1.9052 -0.8247 0.4061 -1.5452 0.0002 -0.9419 0.7564 -0.9130 -0.3771 -0.3431 -0.0998 -0.0666 1.4925 -1.9267 -2.4998 0.8079 1.6334 2.9906 0.8145 0.7562 1.8328
0.7210 -3.0439 -3.0778 -3.9168 1.1371 -2.3125 -2.5847 -1.1976 -1.4875 2.5275 -2.0409 0.3853 -1.6575 2.1399 -0.5418 2.0746 1.0644 4.0947 1.9263 -1.0007 -2.7888 0.9748 2.8787 3.2438 -3.9326 0.6804 -0.9681 0.2808 -1.6179 -1.2517 0.1048 1.0131 1.1562 1.9621 -0.1721 1.7031 -2.6497 -0.0606 -0.6370 1.6869 -0.9938 0.6232 -1.3849 0.7691 -0.8051 0.5869 -0.7472 -0.1955 -0.2643 0.3417 0.0825 1.0658 -1.7687 -2.3749 1.3809 1.7336 3.1495 1.0981 0.8851 2.0024
-0.2029 -2.5029 -3.3315 -3.2253 -0.8883 -2.3362 -2.7147 1.3115 0.4275 2.6259 -2.1438 0.6506 -0.5412 2.0737 -1.5648 2.0515 1.4433 3.9425 0.9402 -0.4072 -3.2461 -0.1210 2.1015 3.6628 -3.0095 -0.6076 -0.9618 0.7440 -1.7194 -1.3238 0.1234 0.9496 1.0322 1.7881 -0.3456 1.9241 -2.4195 0.7754 -0.8470 1.7456 -1.1066 0.7666 -0.9380 0.7780 -1.1507 0.8357 -0.8207 -0.2494 -0.0133 0.2864 -0.0991 0.5466 -1.4015 -2.6488 0.8668 1.4878 3.2988 0.9176 0.7365 2.0539
0.2747 -2.8297 -3.2679 -3.6886 1.6255 -2.2308 -2.8022 -0.7165 0.2958 2.8766 -1.9802 0.6480 -0.7940 1.5860 -1.6806 0.3066 2.6751 3.1321 0.9060 -0.5356 -3.1086 1.6153 1.2137 4.3119 -3.4836 0.3254 -1.7012 0.7857 -1.8601 -1.1806 0.1246 0.8515 1.0760 1.9997 -0.1513 1.8547 -2.5382 0.4175 -0.5199 1.9249 -1.0105 0.7674 -1.1100 0.3670 -1.0231 0.8970 -0.8964 -0.1636 -0.0598 0.1219 -0.0037 0.6929 -1.5955 -2.5322 1.0565 1.5639 3.2894 1.0160 0.8285 2.0369
1.2605 -3.1618 -3.2009 -3.4075 2.5667 -1.6535 -3.2011 -0.1378 0.7123 2.9607 -1.6102 0.1542 -1.9185 -0.7742 -1.7261 2.0664 1.7411 3.6096 2.4021 -1.0853 -2.8889 -0.2162 1.8749 3.6681 -3.7998 1.3483 -1.0428 0.6442 -1.6912 -1.4732 -0.1158 0.7825 0.9923 1.9364 -0.0288 1.5669 -2.6830 0.8692 -0.1435 1.8899 -0.8073 0.4208 -1.5094 0.3350 -0.9477 0.7777 -0.7748 -0.4206 -0.2909 0.0922 -0.1195 1.5250 -1.8561 -2.5187 0.8221 1.5139 3.1404 0.8572 0.8035 1.8709
0.2800 -2.9292 -3.0327 -2.2199 0.4202 -3.2318 -3.5622 -0.7966 -0.1957 2.6619 -1.6289 -0.0712 -1.5930 2.0198 -0.6185 2.4710 1.0312 3.9999 1.3653 -0.8017 -2.9423 0.8470 2.6027 3.6565 -3.1463 0.4627 -2.1577 0.0436 -1.5210 -1.1571 -0.0072 0.9282 1.4872 2.0898 0.0001 1.5318 -2.5187 -0.2071 -0.9561 1.7293 -0.7707 0.4341 -1.7516 0.7308 -0.0477 0.4630 -0.6601 -0.1335 -0.4181 0.2678 0.4176 0.6450 -1.6261 -2.3926 1.4699 1.6146 3.3084 1.1511 0.8633 2.1015
0.9757 -2.5584 -3.6760 -4.5836 -0.0173 -1.0091 -2.3361 2.3338 0.2769 2.9048 -1.7388 0.2238 -1.7375 -0.4402 -1.9483 1.6883 0.9112 4.1048 2.7373 -1.3305 -2.6369 -0.0071 2.2940 3.4441 -3.8148 1.1689 -1.1289 0.6925 -1.6239 -1.5349 -0.0892 0.7383 1.0261 1.8917 -0.1677 1.6485 -2.5875 1.0369 -0.2531 1.8645 -0.8892 0.4642 -1.3614 0.5736 -1.0326 0.8057 -0.7575 -0.4366 -0.2358 0.1479 -0.1446 1.5860 -1.7448 -2.5776 0.7851 1.3932 3.2263 0.8215 0.6706 1.9640
1.3026 -2.9949 -3.3293 -3.8305 2.3461 -0.4869 -3.1291 -0.9910 -0.1890 2.7156 -2.0909 0.6356 -1.0115 1.3566 -1.8858 0.0122 2.6143 2.9101 1.7396 -0.6746 -2.9700 1.7418 1.5488 3.9615 -3.6446 1.1057 -1.1500 0.6959 -1.9374 -1.3044 -0.0111 0.7893 0.8997 1.8267 -0.2164 1.7621 -2.6077 0.3161 -0.3873 1.7739 -1.1076 0.7007 -1.2897 0.1891 -1.1286 0.7762 -1.0024 -0.2614 -0.1825 0.0155 -0.1506 1.2924 -1.7286 -2.5325 0.9633 1.6644 3.0340 0.8667 0.7980 1.8721
0.8805 -2.9894 -3.2851 -4.5372 -0.5753 -0.3997 -3.4074 1.8049 -1.2975 2.5775 -1.9956 0.2069 -0.8106 2.2651 -1.3298 1.8314 0.8261 4.1118 2.4535 -1.2775 -2.7359 0.4008 2.4744 3.4345 -3.1969 -0.5148 -0.8605 0.4179 -1.4150 -1.5949 -0.0111 0.9332 1.0742 1.8126 -0.3175 1.6695 -2.6241 0.8588 -0.5759 1.6748 -1.0092 0.4740 -1.1908 0.9192 -1.0752 0.6608 -0.6827 -0.4221 -0.2089 0.3698 -0.0999 1.3676 -1.8007 -2.5166 1.0127 1.4393 3.2324 0.8967 0.6871 1.9898
0.0481 -2.5901 -3.4247 -3.1285 -0.8887 -2.3835 -2.7641 1.2427 0.4849 2.6192 -2.1466 0.5963 -0.5911 2.1183 -1.4405 -0.1781 1.9447 3.6185 0.7821 -0.3305 -3.2055 2.0863 1.7271 3.8902 -3.0477 -0.6118 -0.9937 0.6696 -1.7237 -1.3268 0.1289 0.9276 1.0582 1.8005 -0.3604 1.9056 -2.4566 0.7634 -0.8090 1.7323 -1.1190 0.7436 -0.9734 0.7954 -1.1021 0.7985 -0.8320 -0.2499 -0.0451 0.2723 -0.0708 0.5377 -1.3996 -2.6601 1.0515 1.4901 3.2966 0.9298 0.7209 2.0728
2.4587 -1.0454 -2.9081 -4.2207 2.3139 -0.0417 -3.4188 -0.7378 -0.2011 2.9074 -1.7471 0.1851 -1.0716 1.3575 -1.8768 1.7693 1.2931 3.8597 1.6619 -3.2939 -2.8635 -0.0335 2.4899 3.1240 -3.6480 1.4661 -1.0244 0.5920 -1.7420 -1.5500 -0.1707 0.7005 0.9513 1.8869 -0.1184 1.5453 -2.7236 0.4947 -0.3270 1.8371 -0.9360 0.4219 -1.4353 0.2336 -1.0866 0.7416 -0.8986 -0.4372 -0.3011 -0.0073 -0.1505 1.5665 -2.1488 -2.4281 0.7953 1.6067 2.9820 0.8066 0.7196 1.8256
2.1971 -0.8193 -2.9516 -4.2106 1.0454 -1.8820 -3.4019 -0.1719 0.5555 2.9191 -1.7276 0.0979 -1.0966 1.1308 -1.8925 -0.1742 2.0799 3.3559 1.5365 -3.1102 -3.0201 2.0366 1.6601 3.7713 -3.5670 1.7620 -0.8413 0.5154 -1.7398 -1.4842 -0.1146 0.6533 1.0860 1.9522 -0.1502 1.5610 -2.6407 0.8518 -0.0633 1.8527 -0.9411 0.4202 -1.5178 0.2276 -0.8761 0.7105 -0.9005 -0.3754 -0.3232 -0.0219 -0.0213 1.4164 -2.0101 -2.4858 1.0228 1.4994 3.1196 0.8870 0.6823 1.9261
1.0010 -2.8225 -3.5881 -2.6780 2.8423 -0.2267 -3.2731 -0.7126 0.1393 2.8695 -1.6522 0.3255 -1.6400 -0.6050 -2.2693 1.7246 1.9180 3.5128 2.6507 -1.3698 -2.6619 -0.5539 2.0435 3.3531 -2.9438 1.6257 0.4507 0.7019 -1.8498 -1.4598 -0.2154 0.8071 0.7651 1.7664 0.0329 1.5459 -2.8625 0.4705 -0.5215 1.7853 -0.8325 0.4596 -1.5057 0.2855 -1.1799 0.7380 -0.8618 -0.4627 -0.3334 0.0321 -0.2982 1.5581 -1.9092 -2.5413 0.5285 1.6610 2.9436 0.6819 0.8969 1.7138
0.9798 -0.6499 -3.3466 -3.2625 0.2650 -2.7707 -2.7560 -0.8833 -0.1697 2.7898 -2.1057 0.7542 -0.7260 1.8551 -1.4612 0.3458 2.6638 3.1666 -0.7337 -2.2199 -2.7819 1.9219 1.3862 4.2227 -3.4438 0.9385 -1.5344 0.9339 -1.7834 -1.2459 0.1736 0.8604 1.1023 1.9325 -0.2682 1.9560 -2.4349 0.4582 -0.5076 1.8766 -1.0946 0.8430 -1.0080 0.5373 -1.0149 0.9252 -0.8959 -0.1542 0.0127 0.1609 -0.0029 0.2784 -1.6155 -2.4419 1.1763 1.6068 3.2868 1.0183 0.7843 2.1005
1.0177 -2.9382 -3.4112 -4.5063 1.6338 -0.7605 -1.5717 2.1951 -0.7861 3.2816 -1.4955 0.4709 -1.9920 -1.4216 -0.8118 1.5841 1.3213 4.0693 0.9418 -0.5591 -3.2222 -0.3728 2.2309 3.3167 -3.4730 0.9774 -1.4809 1.1838 -1.8874 -1.3114 -0.0887 0.5087 1.0330 2.0018 0.0281 1.7373 -2.2403 0.9525 -0.6091 2.1192 -0.7960 0.6237 -1.2989 -0.1908 -0.9693 1.0735 -0.9322 -0.2889 -0.1099 -0.2109 -0.0695 1.0434 -1.6430 -2.6611 0.6015 1.5133 3.1652 0.8052 0.7136 1.9661
1.5136 -3.3290 -3.1390 -3.6505 1.3551 1.4071 -3.7992 0.3674 -1.5805 2.8680 -1.7529 0.2436 -1.1450 1.2942 -2.0791 1.5295 1.2451 3.8734 2.5922 -1.2231 -2.8093 -0.2425 2.4434 3.0686 -2.9377 1.6487 0.2157 0.6735 -1.7660 -1.5881 -0.2023 0.7197 0.8197 1.7957 -0.1071 1.5426 -2.7957 0.3666 -0.5750 1.7994 -0.9232 0.4188 -1.4392 0.1917 -1.2363 0.7489 -0.8835 -0.4984 -0.3142 0.0094 -0.2813 1.6813 -1.9838 -2.5047 0.6118 1.5821 2.9448 0.7123 0.7454 1.7572
-0.2851 -2.4221 -3.2770 -2.1513 0.5278 -3.2207 -3.4754 -1.0082 -0.3230 2.6870 -1.7155 0.0387 -1.7423 1.9577 -0.4473 0.4866 2.1750 3.8254 1.5228 -0.9297 -2.8283 2.7262 1.7268 3.7266 -3.0998 0.4160 -2.1716 0.1191 -1.6241 -1.0914 0.0629 0.9297 1.4380 2.1174 -0.0138 1.5687 -2.4525 -0.3015 -1.0092 1.7624 -0.8225 0.4967 -1.7574 0.6071 -0.0159 0.5040 -0.7211 -0.0906 -0.3844 0.2333 0.4083 0.5619 -1.5564 -2.3975 1.5975 1.6315 3.2835 1.2004 0.9101 2.0866
1.2783 -0.4533 -3.2952 -3.2389 -1.0657 -2.0912 -2.6678 1.5123 0.3227 2.5989 -2.1912 0.6938 -0.4879 1.9703 -1.6601 1.2989 0.8464 4.2925 -0.4787 -2.0704 -3.2226 0.6631 2.7496 3.1924 -3.0386 -0.5787 -0.7732 0.8120 -1.7622 -1.3427 0.0809 0.9014 1.0074 1.7690 -0.3536 1.9123 -2.4141 0.7906 -0.8669 1.7230 -1.1473 0.7789 -0.9387 0.7128 -1.1881 0.8242 -0.8797 -0.2499 -0.0326 0.2239 -0.1191 0.4206 -1.4836 -2.6281 0.9512 1.5661 3.2054 0.8771 0.7124 2.0317
0.0422 -2.2686 -3.5021 -4.3191 -0.8690 -1.1083 -3.2063 1.6294 -1.1510 2.4853 -2.2919 0.7037 -0.6708 2.0752 -1.4431 0.1184 2.2919 3.4610 1.5488 -0.4871 -2.9901 2.1421 1.4179 4.0780 -2.9280 -0.7278 -1.3427 0.5934 -1.7430 -1.2685 0.2221 0.9565 1.0623 1.8387 -0.3757 1.9209 -2.4142 0.5418 -0.6922 1.6958 -1.1844 0.8038 -0.9648 0.7333 -1.0991 0.7702 -0.8694 -0.1838 -0.0167 0.2870 -0.0459 0.8211 -1.3842 -2.5812 1.2022 1.5017 3.3097 1.0395 0.7665 2.0687
0.2114 -2.4832 -3.3525 -3.3406 -1.7479 -1.6119 -3.0949 1.1989 -2.2027 2.1900 -2.1792 0.3483 -1.0030 2.3764 -1.0341 2.2139 0.8431 4.1613 1.7076 -0.7200 -2.7543 1.0070 2.6818 3.5399 -3.1267 -0.6519 -0.7362 0.0394 -1.3983 -1.2655 0.1196 1.1123 1.3184 1.8534 -0.3246 1.7682 -2.2440 0.3515 -1.4431 1.4884 -1.0456 0.6414 -1.4558 1.1697 -0.4379 0.4226 -0.6337 -0.1555 -0.2920 0.5098 0.2154 0.7545 -1.4253 -2.4453 1.4382 1.5622 3.3237 1.1111 0.8040 2.1225
1.0729 -2.9424 -3.5043 -4.3594 1.4035 0.5466 -3.1926 -0.7139 -1.0466 2.6014 -2.0262 0.4320 -0.8657 1.8539 -1.8895 -0.3463 2.3508 3.0226 2.7567 -1.6150 -2.4612 1.6552 1.6075 3.8482 -2.9661 1.1747 0.4124 0.5952 -1.7043 -1.5602 -0.0782 0.8928 0.7923 1.7096 -0.2153 1.6516 -2.6754 0.6020 -0.9570 1.6780 -1.0256 0.5234 -1.2120 0.5849 -1.3584 0.7202 -0.8275 -0.4716 -0.2132 0.2120 -0.3236 1.5939 -2.0009 -2.4656 0.7744 1.5958 3.0099 0.7513 0.7932 1.7990
1.3216 -0.7631 -3.2924 -3.6627 2.1646 -0.6608 -2.8829 -1.2228 -0.7686 3.0253 -1.8935 0.7875 -0.7541 1.4650 -1.7494 -0.1840 2.4908 3.0507 -0.2433 -2.5404 -2.9643 1.7308 1.7002 4.0184 -3.4158 0.9835 -1.4070 1.1368 -1.9390 -1.2167 0.0598 0.7324 0.9594 1.9215 -0.1292 1.8939 -2.4407 0.1225 -0.6330 1.9821 -1.0136 0.8258 -1.0232 0.1981 -1.1684 1.0243 -0.9885 -0.1860 -0.0067 -0.0369 -0.1083 0.6326 -1.8233 -2.4899 0.8968 1.6863 3.1326 0.8817 0.8069 1.9764
0.8465 -2.9728 -3.3100 -4.4907 -0.4284 -0.1220 -3.3566 1.6073 -1.7043 2.5143 -2.0616 0.2323 -0.7457 2.2982 -1.3055 0.0036 2.1334 3.4862 2.4711 -1.3356 -2.6882 2.1041 1.3431 3.9344 -3.1540 -0.4723 -0.5985 0.4024 -1.4157 -1.6015 -0.0036 0.9215 1.0697 1.7720 -0.3646 1.6878 -2.6151 0.9400 -0.6845 1.6345 -1.0520 0.4891 -1.1557 0.9505 -1.0999 0.6405 -0.6987 -0.4188 -0.2148 0.3690 -0.1051 1.3599 -1.8186 -2.5074 1.1011 1.3836 3.2478 0.8863 0.6738 1.9985
1.2471 -2.9908 -3.3675 -3.8812 -0.5139 -0.5672 -2.2943 2.6396 0.1060 2.5499 -2.0026 0.2186 -1.5308 0.1924 -2.3815 -0.3399 2.0658 3.3356 2.5856 -1.0951 -2.7925 1.5988 1.0950 4.0699 -3.2498 0.4577 0.2505 0.5439 -1.4659 -1.7177 -0.1164 0.8525 0.9122 1.6385 -0.3636 1.6479 -2.5334 1.4536 -0.6314 1.6156 -1.0284 0.4279 -1.2333 0.9469 -1.2242 0.6675 -0.7066 -0.5451 -0.2523 0.3257 -0.2883 1.5640 -1.7436 -2.6020 0.7348 1.2546 3.2285 0.6858 0.6268 1.9202
0.1102 -2.5230 -3.3116 -3.0559 -0.2799 -3.0687 -1.4903 2.1791 -1.1814 2.9400 -1.4093 -0.0136 -2.4242 -1.1642 -0.1029 2.4347 1.9063 3.6412 0.7979 -0.2710 -2.9161 0.2615 1.5506 4.2601 -3.1350 0.7334 -2.0782 0.3771 -1.6999 -1.1158 -0.1112 0.6937 1.5428 2.1027 0.0659 1.6301 -1.8005 0.8064 -1.3772 1.8841 -0.7222 0.5090 -1.7999 0.1055 -0.0310 0.6213 -0.8045 -0.0643 -0.4094 -0.0375 0.4846 0.4743 -1.3563 -2.4484 1.1831 1.4330 3.4714 1.0396 0.7938 2.1698
0.8756 -2.9363 -3.2956 -3.7494 0.8494 0.6593 -3.3625 0.7992 -2.1281 2.4138 -2.0738 0.3636 -0.6970 1.4734 -2.1699 0.0704 2.4172 3.3507 2.3219 -1.1367 -2.6840 1.8946 1.2476 4.0843 -3.2310 -0.2889 -0.0103 0.3402 -1.4970 -1.5000 0.0062 1.0489 1.0194 1.7294 -0.2670 1.7125 -2.4700 0.1180 -1.2567 1.5669 -1.0225 0.5576 -1.2789 1.0074 -0.9641 0.5805 -0.7022 -0.3690 -0.2229 0.4073 -0.1095 1.2836 -1.7534 -2.4746 1.0451 1.4887 3.2476 0.8835 0.8208 1.9668
2.3038 -0.9630 -2.8195 -3.1566 -1.0920 0.3756 -3.4020 1.9257 -1.3741 2.3589 -2.1407 0.2063 -0.7639 2.3257 -1.4005 1.7231 0.7825 4.0838 0.9783 -2.9003 -3.2355 0.3851 2.4868 3.3573 -3.2542 -0.3613 -0.8359 0.2553 -1.4353 -1.6241 -0.0346 0.9727 1.0071 1.6828 -0.4059 1.6513 -2.6242 0.9978 -0.6281 1.5169 -1.0982 0.4583 -1.1979 0.9962 -1.1476 0.5429 -0.7107 -0.4571 -0.2467 0.4083 -0.1632 1.1427 -1.8771 -2.5741 0.9554 1.4238 3.1795 0.8349 0.6649 1.9407
1.2400 -3.3986 -2.8958 -3.4452 2.5329 -0.5863 -1.4574 0.4835 -2.5437 3.0215 -1.1873 -0.2079 -2.8301 -0.3213 0.6769 2.0658 2.1677 3.2982 1.6341 -1.0469 -3.0592 -0.1098 1.7338 3.8552 -3.3352 1.3874 -1.4174 0.4483 -1.9154 -1.2450 -0.2929 0.4743 1.3241 1.9883 0.1971 1.3969 -1.9410 0.8373 -1.2570 1.8745 -0.6634 0.3116 -1.8452 -0.3759 -0.3456 0.6299 -0.9540 -0.2389 -0.4972 -0.3179 0.2923 1.1544 -1.9797 -2.4264 0.8647 1.5768 3.1398 0.8327 0.7696 1.9281
2.2099 -0.7134 -2.9993 -3.0979 2.4837 -1.8288 -3.3030 0.1379 0.8935 3.0008 -1.5595 0.0366 -2.1732 -1.1738 -1.2213 -0.2368 2.1534 3.2701 1.5956 -3.0140 -3.1357 1.9589 1.7154 3.7415 -3.6902 1.4575 -1.0485 0.6047 -1.7395 -1.5092 -0.1501 0.6347 1.0328 1.9657 -0.0103 1.4839 -2.6502 0.9076 -0.1036 1.9012 -0.8168 0.3530 -1.6179 0.0730 -0.8417 0.7472 -0.8576 -0.4280 -0.3564 -0.0672 -0.0605 1.4734 -1.9389 -2.5523 0.9632 1.5703 3.0581 0.8551 0.7576 1.8595
1.4156 -3.0490 -3.4424 -3.7032 1.8713 1.1671 -3.1542 1.7337 -1.8154 2.9397 -1.6818 0.2602 -2.1407 -1.0766 -1.3564 1.5456 1.3048 3.8502 2.8008 -1.2500 -2.7126 -0.3829 2.3091 3.1442 -3.3534 0.7634 0.3541 0.7909 -1.7282 -1.6040 -0.1910 0.7154 0.8068 1.8209 -0.0576 1.5456 -2.4018 1.2365 -0.7229 1.8644 -0.8555 0.4104 -1.4514 0.1551 -1.2118 0.8292 -0.8308 -0.5266 -0.2747 0.0136 -0.3050 1.7720 -1.8964 -2.5587 0.5598 1.5564 2.9654 0.7143 0.7664 1.7517
0.8770 -3.2785 -3.1812 -1.7683 2.7019 -1.4892 -3.5837 0.1632 -1.6142 3.0795 -0.9084 -0.3982 -2.7665 -0.8143 0.9026 1.9144 2.4949 3.0028 1.6521 -1.0235 -3.0744 -0.0973 1.7519 3.7997 -2.2539 1.7944 -0.5120 0.5669 -1.9867 -1.2366 -0.3035 0.3715 1.3224 1.9899 0.3920 1.2380 -2.2771 0.4113 -1.1259 1.9116 -0.5115 0.1842 -1.8593 -0.7077 -0.1837 0.6795 -0.9699 -0.2765 -0.4793 -0.4671 0.3220 1.0866 -1.9544 -2.5140 0.8215 1.7061 2.9999 0.8101 0.8349 1.8342
2.2873 -0.6074 -2.9232 -4.6496 0.9175 -0.0681 -1.7169 2.4402 -0.9904 2.9458 -1.7316 0.1979 -2.3053 -1.1361 -0.8097 1.6716 1.1327 3.9570 1.7692 -2.9173 -3.2077 -0.1522 2.3165 3.2524 -3.7541 1.2457 -1.1191 0.6810 -1.7736 -1.5391 -0.1815 0.6076 0.9806 1.8876 -0.1339 1.5712 -2.3570 1.2517 -0.5491 1.8662 -0.9318 0.4330 -1.5344 0.0467 -0.9821 0.7744 -0.9135 -0.4332 -0.3134 -0.0796 -0.1339 1.5828 -1.8823 -2.5711 0.7144 1.4776 3.0723 0.7843 0.6709 1.8620
0.2576 -2.4183 -3.4003 -3.1830 -0.1505 -3.1349 -1.7215 2.1292 -1.1432 2.9079 -1.5302 0.0114 -2.4056 -1.2383 0.0098 0.3441 2.3031 3.6712 0.9006 -0.1775 -2.8831 2.4211 1.4204 4.0441 -3.3139 0.5725 -1.9214 0.3648 -1.6683 -1.1642 -0.0627 0.6504 1.5506 2.1165 -0.0016 1.6285 -1.9370 0.7353 -1.3204 1.8787 -0.7873 0.5092 -1.8142 0.0495 0.0276 0.6193 -0.8215 -0.0758 -0.4025 -0.0506 0.4870 0.5533 -1.2801 -2.4757 1.3977 1.5066 3.3920 1.0787 0.7572 2.1878
0.1359 -3.0353 -2.9231 -3.9934 1.9232 -1.6951 -1.0465 1.7337 -1.5374 3.4676 -1.0536 0.2132 -2.3085 -1.2048 0.1980 -0.3490 2.1990 3.2313 0.3619 -0.6751 -3.2316 1.5612 1.4275 4.2270 -3.1810 0.7688 -1.8406 1.2993 -1.7041 -1.3627 -0.1094 0.3459 1.2604 2.1134 0.1861 1.6967 -2.0021 0.8928 -0.9037 2.2296 -0.5834 0.5455 -1.3969 -0.4727 -0.6104 1.1204 -0.8650 -0.2503 -0.1209 -0.3540 0.1451 0.5816 -1.6601 -2.5371 0.7779 1.4575 3.2975 0.8589 0.6737 2.0772
0.4290 -3.1384 -3.1388 -1.3443 2.5849 -0.8277 -3.5902 0.0436 -1.5079 3.3499 -0.7394 -0.1126 -2.2705 -1.5696 0.4463 1.8724 1.8022 3.7600 0.0480 -0.7826 -3.1790 -0.3699 2.1566 3.5177 -1.7424 1.4969 -1.6467 1.0813 -1.7770 -1.3296 -0.2168 0.4170 1.2131 2.0383 0.4767 1.4280 -2.4497 0.4791 -0.7784 2.1128 -0.3533 0.3155 -1.5809 -0.7310 -0.4696 0.9616 -0.8002 -0.3270 -0.2804 -0.3631 0.1523 0.4783 -1.7542 -2.5697 0.6848 1.6835 3.1296 0.7888 0.8683 1.9245
1.4788 -0.7248 -2.9323 -2.3873 1.5333 -2.9540 -3.1970 -1.1525 -0.6791 2.6439 -1.7679 0.0010 -2.6098 1.0697 0.7994 0.6084 2.4956 3.5178 0.5481 -2.9186 -2.9771 2.6684 1.5367 3.7820 -3.2308 0.6834 -2.1922 0.0667 -1.5950 -1.1668 0.0763 0.9534 1.3438 2.0962 -0.0495 1.5190 -2.3780 -0.1613 -1.2756 1.7372 -0.8482 0.4409 -1.7075 0.6944 -0.2243 0.4912 -0.7083 -0.1672 -0.3906 0.2711 0.3158 0.6814 -1.8597 -2.3663 1.6094 1.6489 3.1941 1.1950 0.8993 2.0209
1.5560 -0.4462 -3.1169 -3.7059 1.8574 0.8943 -2.9388 1.5304 -2.0123 3.0477 -1.7126 0.4833 -1.9865 -1.2569 -1.3173 1.4802 1.4018 3.9102 1.6813 -2.8151 -3.3299 -0.3989 2.3875 3.0614 -3.2927 0.6951 0.1953 0.9257 -1.9683 -1.3363 -0.1222 0.6701 0.8313 1.8940 -0.0134 1.6468 -2.2683 1.0966 -0.8428 1.9560 -0.9006 0.5812 -1.3046 -0.0201 -1.2020 0.9229 -0.9698 -0.3519 -0.1828 -0.1102 -0.2268 1.4202 -1.8510 -2.6127 0.5495 1.6278 2.9611 0.7672 0.7977 1.7841
1.6556 -0.6935 -2.7971 -3.2338 -1.5528 -1.9101 -3.0891 1.5218 -2.0989 2.2158 -2.1451 0.2028 -0.9332 2.4660 -0.8461 0.9871 2.5607 3.4784 0.3463 -2.6575 -3.1302 2.2019 0.7935 4.2783 -3.1434 -0.5248 -0.9347 -0.0865 -1.3876 -1.2680 0.1216 1.0386 1.3682 1.8647 -0.3721 1.7142 -2.2423 0.5599 -1.4791 1.4776 -1.0582 0.5692 -1.4532 1.2296 -0.3694 0.3780 -0.6414 -0.1774 -0.3195 0.4911 0.2494 0.5992 -1.6862 -2.4200 1.5289 1.3260 3.4160 1.1242 0.7319 2.1542
1.6383 -3.3023 -3.0524 -3.9812 1.9058 0.3837 -1.5674 1.6734 -2.0909 3.0689 -1.3604 -0.0461 -2.6745 -1.0035 0.0365 -0.4648 1.8860 3.3663 2.1268 -0.9624 -3.0543 1.8105 1.9152 3.6064 -3.6081 1.4266 -0.8998 0.6333 -1.8458 -1.4926 -0.2982 0.4299 1.1080 1.9105 0.0514 1.4463 -2.1221 1.1734 -0.8858 1.8950 -0.7716 0.3224 -1.7177 -0.2838 -0.7250 0.7243 -0.9626 -0.4058 -0.4279 -0.3004 0.0214 1.5197 -1.8982 -2.5476 0.8007 1.5453 3.0393 0.7341 0.6841 1.8701
0.6323 -2.7746 -3.3000 -1.4962 1.7075 -2.5492 -3.8041 0.1097 -1.0543 2.9885 -0.8392 -0.4655 -2.2368 -1.9070 0.2843 0.1197 1.8105 3.9052 0.6753 -0.4008 -3.0453 2.2817 2.3444 3.3807 -1.9233 1.5217 -1.2098 0.4198 -1.7743 -1.1730 -0.2006 0.5066 1.5397 2.0624 0.4685 1.2691 -2.3824 0.0880 -1.0504 1.8834 -0.4087 0.2071 -1.9227 -0.5249 0.2602 0.6104 -0.8225 -0.1616 -0.4786 -0.3150 0.5464 0.5835 -1.5017 -2.5154 1.2334 1.7749 3.1429 0.9541 0.9368 1.9888
1.1614 -0.5085 -3.4326 -4.3888 0.8185 -0.5678 -1.3486 2.2919 -1.1313 3.2798 -1.5865 0.6145 -1.9591 -1.2796 -0.8361 -0.4376 2.2378 3.0889 0.0817 -2.6080 -3.0615 1.4009 1.4272 4.1841 -3.3528 1.0933 -1.4984 1.4197 -1.7394 -1.3982 -0.0574 0.4946 1.0238 1.9458 -0.0908 1.8559 -2.0445 1.1153 -0.7454 2.1259 -0.8620 0.7135 -1.1818 -0.1055 -1.0380 1.1592 -0.9125 -0.2914 -0.0222 -0.1797 -0.1068 0.7947 -1.7117 -2.6204 0.6546 1.4555 3.2240 0.7693 0.6501 2.0231
1.4350 -3.0178 -3.4741 -3.7687 1.8335 1.1719 -3.1626 1.7632 -1.7503 2.9600 -1.6686 0.2290 -2.1230 -1.0360 -1.4508 -0.6210 1.8501 3.2453 2.8379 -1.2573 -2.6771 1.6361 1.8859 3.6313 -3.3359 0.7291 0.3945 0.7951 -1.7135 -1.6264 -0.1973 0.6636 0.8357 1.8137 -0.0897 1.5534 -2.3996 1.2381 -0.6795 1.8689 -0.8665 0.4011 -1.4409 0.1817 -1.2060 0.8296 -0.8393 -0.5299 -0.2803 -0.0096 -0.2907 1.7930 -1.8861 -2.5621 0.6658 1.5228 2.9952 0.6941 0.7164 1.7891
2.3589 -0.6306 -2.9062 -4.7227 1.7841 -0.3270 -1.8768 2.2825 -0.4856 3.0538 -1.6116 0.1425 -2.2068 -1.3025 -1.0050 -0.4844 1.8015 3.3521 1.8081 -2.9255 -3.2381 1.7806 1.8208 3.6842 -3.7975 1.0671 -1.1312 0.7488 -1.8113 -1.5351 -0.1843 0.5014 1.0027 1.9166 -0.1038 1.5560 -2.4846 0.9997 -0.3881 1.9236 -0.8968 0.4122 -1.5390 -0.0489 -0.9610 0.8145 -0.9461 -0.4326 -0.3180 -0.1802 -0.1126 1.6409 -1.9034 -2.5754 0.7931 1.4639 3.0710 0.7751 0.6395 1.8770
2.5784 -1.0919 -2.7823 -3.2676 0.2391 1.3939 -3.4000 1.7709 -1.6603 2.4939 -2.0935 0.2411 -0.6777 1.7566 -2.0191 0.0659 2.4892 2.9732 1.3904 -3.1352 -3.0949 1.3034 0.9532 4.1341 -3.3501 0.0848 -0.0141 0.4564 -1.5454 -1.7262 -0.1496 0.8258 0.8708 1.6228 -0.3904 1.6163 -2.5665 1.2061 -0.6574 1.5691 -1.1091 0.4269 -1.2890 0.6920 -1.2991 0.6130 -0.8112 -0.5404 -0.2881 0.2349 -0.2945 1.4459 -2.0411 -2.5386 0.7575 1.3380 3.1177 0.6921 0.6271 1.8528
1.1712 -0.2669 -2.9394 -3.5435 -0.0763 -2.7535 -1.3035 2.1013 -1.1756 2.8551 -1.3217 -0.2300 -2.5714 -1.1327 -0.0481 0.3569 2.3503 3.5781 0.8697 -2.6204 -3.1727 2.2580 1.1985 4.1270 -3.2728 0.9985 -1.8680 0.1859 -1.6421 -1.2111 -0.1769 0.5685 1.6044 2.0561 0.0570 1.5104 -1.8810 0.8098 -1.3180 1.8004 -0.7107 0.3800 -1.8915 0.1083 0.0307 0.5118 -0.8148 -0.1265 -0.5007 -0.1066 0.5200 0.7569 -1.6247 -2.4608 1.3181 1.4219 3.3877 1.0011 0.7029 2.1657
0.5855 -3.1305 -3.1998 -1.4172 2.5659 -0.7490 -3.6110 -0.0239 -1.4508 3.3652 -0.7196 -0.1399 -2.2264 -1.5552 0.5672 -0.4768 1.7885 3.5272 -0.0176 -0.8201 -3.1632 1.7707 2.1971 3.6407 -1.8056 1.4847 -1.5824 1.0946 -1.7793 -1.3400 -0.1973 0.4318 1.1876 2.0531 0.5182 1.3808 -2.4789 0.4362 -0.7238 2.1272 -0.3290 0.2812 -1.5834 -0.7577 -0.4200 0.9751 -0.7931 -0.3482 -0.2638 -0.3633 0.1400 0.5016 -1.7668 -2.5849 0.8004 1.7040 3.0975 0.8045 0.9121 1.8798
1.5036 -0.7460 -3.0801 -3.5531 2.3608 -0.5078 -1.5530 0.3512 -2.4892 3.0470 -1.1544 -0.2534 -2.8008 -0.4576 0.7790 -0.1806 1.8679 3.6181 1.4298 -3.1256 -2.9550 2.0484 2.3012 3.3315 -3.4247 1.2050 -1.3215 0.4593 -1.9320 -1.2503 -0.2534 0.4317 1.3382 2.0131 0.2317 1.3517 -2.0075 0.7087 -1.1931 1.8981 -0.6549 0.2848 -1.8431 -0.4877 -0.2694 0.6500 -0.9838 -0.2326 -0.4807 -0.3793 0.3285 1.1616 -2.0494 -2.4252 1.0241 1.7225 3.0242 0.8619 0.7900 1.9216

>  <OB_ATOM_TYPES> (1nsdA1)
C.3 O.3 O.3 O.3 O.3 O.co2 O.2 O.co2 C.3 N.am O.2 C.2 C.3 C.3 C.3 C.3 C.3 C.2 C.2 C.2

>  <ENSEMBLE_RMSD> (1nsdA1)
0.000 0.717 0.722 0.788 0.832 0.850 0.857 0.894 0.915 0.990 1.009 1.028 1.084 1.126 1.131 1.168 1.169 1.173 1.178 1.189 1.196 1.197 1.227 1.241 1.270 1.271 1.330 1.337 1.354 1.384 1.392 1.416 1.427 1.454 1.457 1.471 1.481 1.502 1.506 1.549 1.555 1.556 1.572 1.579 1.581 1.593 1.607 1.635 1.644 1.692

$$$$
