
 OpenBabel03071213D

 17 18  0  0  0  0  0  0  0  0999 V2000
   -3.5760    6.8600   14.1100 C   0  0  0  0  0
   -5.4690    6.6220   12.9000 C   0  0  0  0  0
   -5.4860   -0.4700   16.5240 N   0  0  0  0  0
   -7.3490    1.0470   16.9670 O   0  0  0  0  0
   -5.2510    1.2730   18.2200 O   0  0  0  0  0
   -6.4910    5.2760   17.1660 C   0  0  0  0  0
   -4.0850    2.4330   13.6540 C   0  0  0  0  0
   -6.0160    6.1860   16.2070 C   0  0  0  0  0
   -4.3270    3.8040   13.8100 C   0  0  0  0  0
   -6.2330    3.9050   16.9830 C   0  0  0  0  0
   -4.5510    1.5230   14.5980 C   0  0  0  0  0
   -4.7820    6.7640   14.0340 N   0  0  0  0  0
   -5.2940    5.7660   15.0740 C   0  0  0  0  0
   -5.0370    4.3650   14.8970 C   0  0  0  0  0
   -5.5130    3.4240   15.8650 C   0  0  0  0  0
   -5.2670    2.0110   15.7090 C   0  0  0  0  0
   -5.8600    0.9290   16.8970 S   0  0  0  0  0
  1 12  1  0  0  0
  2 12  1  0  0  0
  3 17  1  0  0  0
  4 17  2  0  0  0
  5 17  2  0  0  0
  6  8  2  0  0  0
  6 10  1  0  0  0
  7  9  2  0  0  0
  7 11  1  0  0  0
  8 13  1  0  0  0
  9 14  1  0  0  0
 10 15  2  0  0  0
 11 16  2  0  0  0
 12 13  1  0  0  0
 13 14  2  0  0  0
 14 15  1  0  0  0
 15 16  1  0  0  0
 16 17  1  0  0  0
M  END
>  <MOLID> (1oklA1)
1oklA1

>  <SMILES_CANONICAL> (1oklA1)
CN(c1cccc2c1cccc2S(=O)(=O)N)C	

>  <FINGERPRINT> (1oklA1)
0000000000000000000000000001001000000000100000000010000000000000000000010000000000000000000000000000000010110000000000100000000000000000000000000000000000010000000000000000000000000000000000000000000000000000000000000000000000000000000000000000000000001000000000000000000000000000000000000000000000000000000010000100000000000000001000000010000000000100001000000000000010000000000000000000000000000000000000000000000000000000000000000000000000000001100000000010000000000000010000000000000000000000000000000000000000000000000001000000000000000000000000000000000000000000000000000000100000000000000000000000000000000000000000000010000000000000110000000000000000000000000000000000100000000000000000000000100000100000000000000000000000000000000010000100000000000000000010000000000000000000000000000000000000000000000000000000000000000000000000000000000000000000000000000000000000000000000000001100100000000000000000001000000000000000001000000000011000000000000000000000000000000000000000000000000000000000000000010000000000100000

>  <MACCS166> (1oklA1)
000000000000000000000000010000011000000000001000011000100111100100100000110100001001110100001100001001001101000100001000010110000110101100011100110110100001011110111000

>  <OB_MW> (1oklA1)
250.078

>  <OB_logP> (1oklA1)
3.3343

>  <OB_PSA> (1oklA1)
71.78

>  <OB_MR> (1oklA1)
69.1494

>  <OB_ATOMIC_CHARGES> (1oklA1)
0.1122355404 0.1122355404 0.0392101978 -0.1502951099 -0.1502951099 0.0013083423 0.001412357 0.0145189874 0.0013072973 0.0014134021 0.0200064636 -0.3040652822 0.0479363012 0.0146240213 0.0199014294 0.1250480642 0.0934975577

>  <MCT_HBD> (1oklA1)
1

>  <MCT_HBA> (1oklA1)
4

>  <ENSEMBLE_TOTAL> (1oklA1)
2

>  <ENSEMBLE_COORDS> (1oklA1)
1.7526 3.2295 -1.3968 -0.1404 2.9915 -2.6068 -0.1574 -4.1005 1.0172 -2.0204 -2.5835 1.4602 0.0776 -2.3575 2.7132 -1.1624 1.6455 1.6592 1.2436 -1.1975 -1.8528 -0.6874 2.5555 0.7002 1.0016 0.1735 -1.6968 -0.9044 0.2745 1.4762 0.7776 -2.1075 -0.9088 0.5466 3.1335 -1.4728 0.0346 2.1355 -0.4328 0.2916 0.7345 -0.6098 -0.1844 -0.2065 0.3582 0.0616 -1.6195 0.2022 -0.5314 -2.7015 1.3902
1.9181 3.0816 -1.9490 -0.4131 3.6843 -2.2624 0.3541 -4.2190 1.3471 -1.9365 -3.1753 0.9735 -0.4448 -2.2895 2.7752 -1.0429 1.8042 1.6081 1.1408 -1.2163 -1.7982 -0.5063 2.6143 0.6844 0.9928 0.1189 -1.7547 -0.9010 0.3760 1.4689 0.6232 -2.0789 -0.7525 0.5722 3.0427 -1.4179 0.1769 2.0856 -0.4979 0.3200 0.7390 -0.6151 -0.2281 -0.1613 0.4342 -0.0209 -1.6015 0.3322 -0.6045 -2.8047 1.4242

>  <OB_ATOM_TYPES> (1oklA1)
C.3 C.3 N.3 O.2 O.2 C.ar C.ar C.ar C.ar C.ar C.ar N.pl3 C.ar C.ar C.ar C.ar S.O2

>  <ENSEMBLE_RMSD> (1oklA1)
0.000 0.386

$$$$
