
 OpenBabel03071213D

 10 10  0  0  0  0  0  0  0  0999 V2000
   17.6100   91.3790   45.7680 N   0  0  0  0  0
   18.2340   97.6270   46.3230 O   0  0  0  0  0
   16.2470   97.5450   45.4360 O   0  0  0  0  0
   16.3730   93.3820   45.3620 C   0  0  0  0  0
   18.5910   93.4850   46.3230 C   0  0  0  0  0
   16.2880   94.7650   45.3770 C   0  0  0  0  0
   18.4950   94.8660   46.3340 C   0  0  0  0  0
   17.5280   92.7200   45.8230 C   0  0  0  0  0
   17.2730   96.9780   45.8640 C   0  0  0  0  0
   17.3480   95.5470   45.8730 C   0  0  0  0  0
  1  8  1  0  0  0
  2  9  1  0  0  0
  3  9  2  0  0  0
  4  6  1  0  0  0
  4  8  2  0  0  0
  5  7  2  0  0  0
  5  8  1  0  0  0
  6 10  2  0  0  0
  7 10  1  0  0  0
  9 10  1  0  0  0
M  END
>  <MOLID> (1pbdA1)
1pbdA1

>  <SMILES_CANONICAL> (1pbdA1)
OC(=O)c1ccc(cc1)N	

>  <FINGERPRINT> (1pbdA1)
0000000000000000000000000000001000000000000000000000100000000000000000000000000000000001000000001000000000001001000000100000000000000000000000000000000000000000000000000000000001000000000000000000000000000000000000000000000000000000000000000000000000000000000000000000000000000001000000000000000000000000000010000100000000000000000000000000000000000100010000000000000010000000000000000000000000000000100000000000000000000000000000000000000000000000000000000000000000000000010000000000000000001000000000000000100000000000000000000000000000000000000000100000000000000000000000000000000000000000000000000000000000000000000000000000000000000000010000000000000000000000000000000000100000000010000010100010000000100000000000000000000000000000000000000100000000000000000001000000000000000000000000000000000010000000000000000000000000000000000000000000000000000000000000000000000000000000000000000000000000000000000000000000000000000000000000000000011000000000000000001100000000000000000000000000000000000000000000000000000000000000

>  <MACCS166> (1pbdA1)
000000000000000000000000000000000000000000001000010000000000000000000000000100000001000000000000001000000000000000000000001000000010101100110100010000100101111010111000

>  <OB_MW> (1pbdA1)
137.048

>  <OB_logP> (1pbdA1)
1.5482

>  <OB_PSA> (1pbdA1)
63.32

>  <OB_MR> (1pbdA1)
37.8057

>  <OB_ATOMIC_CHARGES> (1pbdA1)
-0.1280572497 -0.2405521902 -0.2405521902 0.0182665839 0.0182665839 0.0079598192 0.0079598192 0.0890977287 0.3877532457 0.0798578495

>  <MCT_HBD> (1pbdA1)
2

>  <MCT_HBA> (1pbdA1)
3

>  <ENSEMBLE_TOTAL> (1pbdA1)
3

>  <ENSEMBLE_COORDS> (1pbdA1)
0.2113 -3.4504 -0.0803 0.8353 2.7976 0.4747 -1.1517 2.7156 -0.4123 -1.0257 -1.4474 -0.4863 1.1923 -1.3444 0.4747 -1.1107 -0.0644 -0.4713 1.0963 0.0366 0.4857 0.1293 -2.1094 -0.0253 -0.1257 2.1486 0.0157 -0.0507 0.7176 0.0247
0.2326 -3.4858 -0.0752 -1.0255 2.6715 -0.7907 0.6187 2.8693 0.7690 -0.9324 -1.4602 -0.6380 1.1173 -1.3426 0.6302 -1.0129 -0.0117 -0.5877 1.0561 0.0005 0.6646 0.0917 -2.1168 -0.0575 -0.1005 2.1762 0.0645 -0.0451 0.6996 0.0207
0.2210 -3.4863 -0.0753 -1.3129 2.6495 -0.2819 0.8758 2.8890 0.2884 -1.0407 -1.4681 -0.4046 1.2333 -1.3337 0.3923 -1.1074 -0.0191 -0.3713 1.1729 0.0093 0.4349 0.0854 -2.1168 -0.0478 -0.0839 2.1769 0.0321 -0.0434 0.6993 0.0332

>  <OB_ATOM_TYPES> (1pbdA1)
N.pl3 O.co2 O.co2 C.ar C.ar C.ar C.ar C.ar C.2 C.ar

>  <ENSEMBLE_RMSD> (1pbdA1)
0.000 0.988 0.994

$$$$
