
 OpenBabel03071213D

 17 18  0  0  0  0  0  0  0  0999 V2000
   45.4460   43.2670   12.8700 C   0  0  0  0  0
   46.5030   41.7370   14.3860 C   0  0  0  0  0
   48.7760   43.3690   13.8290 O   0  0  0  0  0
   46.8040   47.5020   13.0720 C   0  0  0  0  0
   46.1430   44.7750   17.6560 C   0  0  0  0  0
   47.2490   47.5760   11.7570 C   0  0  0  0  0
   44.8220   45.2460   17.6310 C   0  0  0  0  0
   47.1290   46.2660   13.7430 C   0  0  0  0  0
   46.6010   44.1400   16.4980 C   0  0  0  0  0
   48.0450   45.3490   11.7620 C   0  0  0  0  0
   44.5440   44.4080   15.4280 C   0  0  0  0  0
   47.8880   46.5280   11.0310 N   0  0  0  0  0
   44.0200   45.0780   16.5120 N   0  0  0  0  0
   47.6660   45.2520   13.0220 C   0  0  0  0  0
   45.8330   43.9110   15.3670 C   0  0  0  0  0
   47.7160   43.8630   13.6880 C   0  0  0  0  0
   46.3590   43.3260   14.1640 C   0  0  0  0  0
  1 17  1  0  0  0
  2 17  1  0  0  0
  3 16  2  0  0  0
  4  6  2  0  0  0
  4  8  1  0  0  0
  5  7  1  0  0  0
  5  9  2  0  0  0
  6 12  1  0  0  0
  7 13  2  0  0  0
  8 14  2  0  0  0
  9 15  1  0  0  0
 10 12  2  0  0  0
 10 14  1  0  0  0
 11 13  1  0  0  0
 11 15  2  0  0  0
 14 16  1  0  0  0
 15 17  1  0  0  0
 16 17  1  0  0  0
M  END
>  <MOLID> (1phgA1)
1phgA1

>  <SMILES_CANONICAL> (1phgA1)
O=C(C(c1cccnc1)(C)C)c1cccnc1	

>  <FINGERPRINT> (1phgA1)
0000000000000000100000000000001000000000100000000100100000000000000000000000000001000001000000000000000010000000000000100001000000000000000001000001000000000000000000000000000000000000000000000000000000000000001000000000000000000000000000000000000000000000000000000100000000001000000000000000000000001000000000000100000000000000000100000000000000000100010000000000000000010000000000000000001100000000100010000000000000000000000000000000100000000000010000000000000000000000000000000000000000000100000000000000010000000000000000000000000000000000000000100000000000000000000001000000000000100000000001000000000000000000000000000000000000000001110000000000000000000001000000000000100000010100100000100000000000100000100000000000000000000000000010000100000000000000000111000000000000000100000000000000000000000000000000000000000000000000000010000000000000000000000000000000000000000000000000000000000000000000010000000000000000000000000000000000001000000000000000101000000000000000001000000000000000000000000000000000010100000000

>  <MACCS166> (1phgA1)
000000000000000000000000000000000000000000001000010000000000000011000000010101000000000000000000111000000001000100000011100010000000000110011100110010010100011110111000

>  <OB_MW> (1phgA1)
226.111

>  <OB_logP> (1phgA1)
2.6371

>  <OB_PSA> (1phgA1)
42.85

>  <OB_MR> (1phgA1)
66.2105

>  <OB_ATOMIC_CHARGES> (1phgA1)
0.0121592838 0.0121592838 -0.2909761741 0.0207720357 0.0203686969 0.0988862929 0.0988621363 0.0060033358 -0.0007430241 0.10169316 0.0949706673 -0.2422248671 -0.2426371005 0.0541441504 0.0032659377 0.17750127 0.0757949152

>  <MCT_HBD> (1phgA1)
0

>  <MCT_HBA> (1phgA1)
3

>  <ENSEMBLE_TOTAL> (1phgA1)
47

>  <ENSEMBLE_COORDS> (1phgA1)
-1.1154 -1.5326 -1.3898 -0.0584 -3.0626 0.1262 2.2146 -1.4306 -0.4308 0.2426 2.7024 -1.1878 -0.4184 -0.0246 3.3962 0.6876 2.7764 -2.5028 -1.7394 0.4464 3.3712 0.5676 1.4664 -0.5168 0.0396 -0.6596 2.2382 1.4836 0.5494 -2.4978 -2.0174 -0.3916 1.1682 1.3266 1.7284 -3.2288 -2.5414 0.2784 2.2522 1.1046 0.4524 -1.2378 -0.7284 -0.8886 1.1072 1.1546 -0.9366 -0.5718 -0.2024 -1.4736 -0.0958
-1.4070 -1.6068 -1.1987 -0.0566 -3.0249 0.2443 2.0329 -1.4700 -0.5441 0.0958 2.6490 -1.5967 -0.1874 0.3137 3.1776 1.1024 2.9134 -2.4427 -1.6564 0.3710 3.3915 0.0036 1.3280 -1.0255 0.1712 -0.3571 2.0754 1.9175 0.8145 -2.3357 -2.1095 -0.7598 1.4974 2.0523 2.0023 -2.8384 -2.5728 -0.1454 2.6349 0.8508 0.3610 -1.4019 -0.8161 -0.8773 1.1466 0.9285 -0.9366 -0.6765 -0.3492 -1.5750 -0.1075
-1.3702 -1.1327 -1.1919 -0.0907 -2.8171 -0.0047 2.0617 -1.0079 0.0002 0.3450 2.7709 -1.9614 -0.3317 -0.4745 3.6117 1.1199 2.6948 -3.0546 -1.7772 -0.1447 3.6985 0.3053 1.6454 -1.0579 0.0711 -0.8157 2.3811 1.7932 0.5917 -2.5997 -2.1260 -0.5093 1.5038 1.8873 1.6074 -3.4014 -2.6344 -0.1480 2.7272 0.9579 0.5205 -1.3750 -0.8439 -0.8306 1.2538 0.9771 -0.6290 -0.4455 -0.3446 -1.3212 -0.0842
-1.2651 -1.1064 -1.1334 0.2460 -2.7169 -0.1313 2.0411 -0.5176 0.4015 0.3759 2.8110 -2.1443 -1.0216 -1.4832 3.6578 0.9347 2.5158 -3.3285 -1.7690 -0.2004 3.7190 0.4201 1.8253 -1.0904 -0.5629 -1.7851 2.4363 1.5738 0.4534 -2.6739 -1.4979 0.2138 1.5236 1.5643 1.3302 -3.6308 -2.0073 0.6090 2.7358 0.9752 0.6313 -1.3296 -0.8035 -0.9176 1.2999 1.0144 -0.3913 -0.2667 -0.2184 -1.2713 -0.0449
-1.3753 -1.0059 -1.1783 -0.1476 -2.8587 -0.1803 2.0851 -1.2270 -0.0428 1.6080 2.8387 -1.5110 -1.1004 0.8636 2.8681 1.3286 2.7530 -2.8210 -2.0138 -0.1026 3.5331 1.4896 1.6522 -0.6966 -0.5629 0.4020 1.7315 0.8603 0.5495 -2.7183 -1.7170 -1.6726 1.9466 0.9381 1.6045 -3.4693 -2.3076 -1.2977 3.1280 1.0807 0.5053 -1.2533 -0.8579 -0.9259 1.2278 1.0305 -0.7295 -0.4400 -0.3385 -1.3488 -0.1242
-1.6402 -1.2469 -1.1235 -0.3483 -2.9733 -0.0246 1.8858 -1.5680 -0.5652 0.0605 2.5112 -2.1818 -0.5268 0.9033 2.8344 1.2919 2.8736 -2.5703 -1.5530 0.1519 3.6003 -0.1157 1.2243 -1.5556 -0.2078 0.3358 1.6649 2.2210 0.9482 -1.8641 -1.7648 -1.4324 2.0154 2.4183 2.1012 -2.4222 -2.1412 -0.9452 3.2423 0.9200 0.3898 -1.3988 -0.8407 -0.8838 1.2045 0.8384 -0.9294 -0.7074 -0.4973 -1.4603 -0.1483
-0.8997 -2.3636 -1.1392 0.5220 -3.0468 0.7127 2.2212 -1.7162 -1.0095 1.5045 2.6209 -0.7634 -0.5700 0.3904 2.9683 0.5507 2.9487 -1.6488 -1.8630 0.9510 2.4982 1.7381 1.2250 -0.4789 -0.0540 -0.5382 2.1528 0.0182 0.7989 -2.0818 -1.9041 -0.3382 0.6539 -0.2263 2.0474 -2.3386 -2.5173 0.6103 1.4332 1.0238 0.2912 -1.1185 -0.7229 -0.9224 0.9229 1.1771 -1.1275 -0.7262 0.0017 -1.8309 -0.0371
-1.3955 -2.1536 -1.0330 0.2519 -3.1012 0.4859 1.7783 -1.8033 -1.4049 -0.0826 2.1696 -2.4718 -0.0195 0.3398 3.0255 0.8146 2.9706 -1.8760 -1.4102 0.8601 2.9658 -0.0811 0.7616 -2.1506 0.2691 -0.5453 2.0629 1.7211 1.2927 -0.6733 -1.9248 -0.3450 1.1361 1.7513 2.5583 -0.9571 -2.3255 0.5387 2.1069 0.7732 0.2969 -1.2313 -0.7021 -0.8978 1.0431 0.8429 -1.1516 -0.9398 -0.2612 -1.7904 -0.0882
-1.3507 -0.9510 -1.2088 -0.2032 -2.8613 -0.2530 2.0751 -1.2556 0.0722 1.5582 2.8183 -1.4714 -1.6342 0.9785 2.5290 1.2087 2.7490 -2.7652 -1.9761 -0.0850 3.5073 1.5256 1.6141 -0.6759 -1.0558 0.5180 1.4131 0.8705 0.5204 -2.6952 -1.1832 -1.7336 2.1933 0.8541 1.5944 -3.4234 -1.7539 -1.3553 3.3834 1.1695 0.4561 -1.2445 -0.8245 -0.8993 1.2017 1.0558 -0.7598 -0.4103 -0.3360 -1.3479 -0.1522
-1.3970 -1.6211 -0.9720 0.2028 -2.9679 0.2301 2.1330 -1.2093 -0.4165 -0.3571 2.0256 -2.8014 -1.4590 -1.1636 3.5651 0.7587 2.7554 -2.9453 -1.4230 0.3214 3.5884 -0.2987 0.8262 -2.0046 -1.1030 -1.6950 2.3885 1.9707 1.3986 -1.6159 -0.7629 0.4667 1.4442 1.9654 2.4629 -2.3566 -1.1325 1.1062 2.5999 0.8269 0.4767 -1.3701 -0.6773 -0.8654 1.2771 0.9859 -0.7926 -0.6050 -0.2328 -1.5248 -0.0059
-1.6194 -1.3340 -1.1182 -0.3135 -3.0034 0.0610 1.8728 -1.6679 -0.7836 0.1950 2.0895 -2.8750 -0.3600 0.8638 2.8374 1.2209 2.8649 -2.4934 -1.5317 0.2680 3.5287 0.0692 0.7761 -2.2936 -0.0471 0.2543 1.6874 1.9900 1.3510 -1.0085 -1.8559 -1.2776 1.9257 2.1576 2.5194 -1.5477 -2.2414 -0.7384 3.1273 0.9005 0.3881 -1.3197 -0.8142 -0.8641 1.1797 0.8449 -0.9881 -0.7655 -0.4677 -1.5018 -0.1421
-0.7807 -2.0331 -1.1065 0.6526 -2.9019 0.6616 2.4981 -1.3013 -0.4494 1.3848 2.7898 -1.3995 -2.3689 -0.9417 2.7889 0.3903 2.8545 -2.2979 -2.0123 0.4857 2.9934 1.7516 1.5012 -0.8636 -1.6775 -1.5388 1.8093 0.0714 0.6225 -2.3105 -0.4461 0.4545 1.3821 -0.2945 1.7696 -2.7928 -1.1355 1.1684 2.3284 1.1238 0.3975 -1.2907 -0.6388 -0.8393 1.0726 1.3480 -0.8722 -0.5575 0.1335 -1.6154 0.0320
-1.3260 -1.1003 -1.2102 -0.0828 -2.8642 -0.1363 2.0922 -1.1342 0.1180 1.9220 2.7448 -1.6792 -2.1381 0.7937 2.3952 1.2765 2.7471 -2.8554 -2.0418 -0.1710 3.5212 1.8299 1.5756 -0.8365 -1.4897 0.4043 1.2897 0.5361 0.6366 -2.6002 -0.7912 -1.6215 2.3392 0.5511 1.6912 -3.3542 -1.3745 -1.2814 3.5340 1.1164 0.5162 -1.2390 -0.8288 -0.8852 1.2147 1.0538 -0.6950 -0.3834 -0.3049 -1.3567 -0.1177
-1.3745 -1.7002 -0.9821 0.2044 -2.9638 0.3551 2.1243 -1.3369 -0.5949 -0.3716 2.0476 -2.7260 -2.0384 -0.9545 3.2568 0.7341 2.8002 -2.8240 -1.3868 0.3438 3.5694 -0.3015 0.8072 -1.9956 -1.6691 -1.4775 2.0804 1.9598 1.3938 -1.5614 -0.1946 0.3507 1.6640 1.9419 2.4968 -2.2432 -0.5509 0.9924 2.8222 0.8289 0.4420 -1.3796 -0.6722 -0.8335 1.2435 0.9884 -0.8619 -0.6780 -0.2223 -1.5462 -0.0065
-1.5987 -0.3759 -1.0153 -0.3870 -2.4433 -0.5957 1.7919 -0.6562 0.4359 1.3090 2.9094 -2.0978 -1.7809 0.5178 3.1079 1.5540 2.4629 -3.3398 -1.6638 -0.7216 3.9191 1.0450 1.9487 -1.0520 -1.4091 0.3664 1.8301 1.3372 0.2950 -2.7552 -0.8939 -1.9387 2.1895 1.5739 1.1388 -3.7122 -1.2420 -1.8782 3.5159 1.0303 0.6438 -1.3482 -0.9598 -0.9155 1.3190 0.8337 -0.3481 -0.2744 -0.5399 -1.0054 -0.1267
-0.7926 -2.9413 -0.4039 1.1832 -2.4758 0.9397 1.2473 -1.8950 -2.0159 2.1550 2.3013 -0.9850 -0.6739 0.9140 2.6329 1.0942 3.0021 -1.4155 -2.1489 0.8708 2.4617 2.0486 0.8641 -0.8931 -0.0160 0.0191 1.8846 -0.1738 1.1623 -1.7260 -2.0526 -0.7632 0.9170 -0.1071 2.4558 -1.8042 -2.8172 0.0873 1.6761 0.8967 0.2687 -1.2248 -0.7112 -0.8588 0.9602 0.7752 -1.1967 -1.1163 0.0931 -1.8146 0.1125
-0.9229 -2.1814 -1.1702 0.4201 -3.0374 0.6582 2.2794 -1.7132 -0.8335 1.6308 2.6369 -0.8634 -2.4365 0.8394 1.3183 0.7170 2.9337 -1.8002 -2.0140 0.7166 2.7369 1.8265 1.2544 -0.4960 -1.7733 0.0264 0.4862 0.1900 0.7726 -2.1706 -0.4299 -0.8142 2.2697 -0.0370 2.0105 -2.4864 -1.0768 -0.0454 3.2054 1.1292 0.3007 -1.1248 -0.7177 -0.8516 0.9559 1.2281 -1.0970 -0.6534 -0.0130 -1.7510 -0.0320
-1.5140 -1.8997 -1.0324 0.0626 -3.0979 0.3560 1.7432 -1.8058 -1.3303 -0.1726 2.3417 -2.1333 -2.0729 0.9378 2.0210 1.0130 2.9671 -2.0770 -1.3702 0.6055 3.2862 -0.2323 0.9447 -1.7764 -1.7276 0.1530 0.9929 2.0857 1.1457 -1.2925 -0.1459 -1.0263 2.3321 2.1929 2.3755 -1.6921 -0.4771 -0.3169 3.4600 0.8353 0.3433 -1.2358 -0.7030 -0.8668 1.1177 0.8216 -1.1042 -0.9063 -0.3389 -1.6968 -0.0898
-1.3638 -0.5389 -0.8800 0.2715 -2.2835 -0.3002 1.9173 0.0868 0.6651 0.7912 2.8235 -2.6541 -2.3395 -1.9179 3.0304 1.1558 2.1708 -3.7690 -1.8990 -0.8219 3.9310 0.7450 2.0987 -1.4056 -1.7446 -1.9032 1.8308 1.4659 0.2140 -2.6916 -0.5145 0.0629 2.3925 1.5077 0.8422 -3.8261 -1.0407 0.1095 3.6594 1.0708 0.8011 -1.3891 -0.7737 -0.8830 1.4723 0.9791 0.0342 -0.1308 -0.2285 -0.8955 0.0650
-0.2330 -3.0357 0.0680 1.6922 -1.5877 0.3860 -0.6736 -1.5510 -2.1588 0.1188 2.6541 -2.3782 -0.8337 -0.7396 3.6477 1.4090 2.9331 -2.1374 -1.6578 0.4461 3.2988 -0.3773 1.3351 -2.0627 -0.3204 -1.3718 2.5847 1.8498 0.8648 -1.3570 -1.3793 0.1517 1.0858 2.3184 2.0480 -1.6080 -1.9598 0.8589 2.1086 0.4500 0.4147 -1.5492 -0.5425 -0.8902 1.2323 -0.0588 -0.9535 -1.2734 0.1977 -1.5769 0.1128
-0.9659 -2.0534 -1.1868 0.3893 -3.0278 0.5607 2.2754 -1.5504 -0.6427 2.1082 2.4985 -1.7312 -2.5636 0.6509 1.5927 0.9308 2.9513 -2.1871 -2.0364 0.5085 2.9736 2.1681 1.1677 -1.1774 -1.9002 -0.0765 0.6856 -0.1405 1.0222 -1.7197 -0.4135 -0.9217 2.3474 -0.2378 2.2269 -2.1918 -1.0478 -0.2370 3.3548 1.0667 0.4062 -1.1150 -0.7584 -0.8941 1.0468 1.1828 -0.9793 -0.5858 -0.0573 -1.6920 -0.0240
-1.7116 -0.7961 -1.0022 -0.5547 -2.8013 -0.2954 1.8472 -1.3607 -0.2844 0.7519 1.6429 -3.4754 -1.3505 0.9749 2.7912 1.4157 2.6773 -2.9367 -1.5383 -0.1118 3.7864 0.5475 0.4588 -2.6753 -0.9697 0.5420 1.5827 1.6692 1.6518 -0.9450 -0.9973 -1.7293 2.3168 1.9198 2.7070 -1.6575 -1.3461 -1.3791 3.5979 0.8895 0.4655 -1.3806 -0.8056 -0.8715 1.2986 0.8029 -0.7822 -0.5902 -0.5698 -1.2881 -0.1310
-0.8251 -2.6467 -0.7481 0.9016 -2.7839 0.9604 1.9609 -1.7293 -1.4181 1.7079 2.6000 -0.8053 -2.6712 0.5237 1.2664 0.9006 2.9929 -1.8028 -2.1104 0.7720 2.6195 1.7465 1.2002 -0.4526 -1.9316 -0.3047 0.5180 0.1366 0.9068 -2.1949 -0.3127 -0.5336 2.2582 0.0857 2.1588 -2.5327 -1.0097 0.2916 3.1053 0.9409 0.3394 -1.0862 -0.6948 -0.8789 1.0148 1.0806 -1.1050 -0.8229 0.0941 -1.8035 0.1209
-1.0750 -1.5027 -1.0598 0.4953 -2.8315 0.2543 2.2630 -0.6791 0.1823 1.7745 1.6847 -3.3208 -2.1312 -1.3612 3.2050 0.8491 2.6333 -3.1084 -1.9856 0.0963 3.4616 1.8401 0.5608 -2.4169 -1.4664 -1.7918 2.1247 0.0324 1.6169 -1.2716 -0.6548 0.4045 1.6760 -0.0648 2.6251 -2.0809 -1.2972 0.9414 2.7619 0.9751 0.4777 -1.3985 -0.6784 -0.8888 1.3068 1.1632 -0.5636 -0.3626 -0.0392 -1.4219 0.0471
-1.4426 -0.5196 -0.8090 0.2842 -2.2108 -0.3422 1.7983 0.2905 0.6995 0.6791 2.7519 -2.8201 -2.1098 -2.1040 3.1344 1.2520 2.0996 -3.8443 -1.8781 -0.8958 3.9673 0.5599 2.0810 -1.5468 -1.5249 -2.0495 1.9309 1.6296 0.2359 -2.6316 -0.6777 0.1387 2.3693 1.7514 0.8192 -3.7842 -1.2012 0.1588 3.6384 0.9970 0.8218 -1.4269 -0.7559 -0.8920 1.5077 0.8982 0.1302 -0.1247 -0.2593 -0.8559 0.0825
-1.6544 0.1039 -0.6939 -0.3866 -2.0016 -0.7446 1.6837 -0.0978 0.7414 2.3642 2.4680 -2.5645 -1.4903 0.1571 3.5597 1.7828 2.0846 -3.7113 -1.9371 -1.2123 3.9248 2.0106 1.7864 -1.3410 -1.0232 0.2632 2.3089 0.5802 0.4654 -2.7107 -1.3646 -2.0688 1.9253 0.8561 1.0753 -3.8207 -1.8475 -2.2771 3.1931 1.1104 0.7944 -1.3619 -0.9504 -0.8891 1.4288 0.8128 0.0268 -0.1222 -0.5469 -0.6784 -0.0109
-1.6854 0.7435 -0.0852 -1.0094 -1.5013 -0.8631 1.7149 -0.1702 0.5028 0.5110 2.2306 -3.3571 -0.3903 -0.6328 3.9051 1.6734 1.9133 -3.9463 -1.6215 -1.4436 4.0828 0.2044 1.6426 -2.0764 -0.1048 -0.3583 2.6258 2.2820 0.5135 -2.2875 -1.9849 -1.6087 1.8699 2.6118 1.0598 -3.4166 -2.3692 -1.9337 3.1458 1.0160 0.7265 -1.5341 -0.9059 -0.8758 1.5335 0.7470 0.0791 -0.2182 -0.6892 -0.3844 0.1189
-1.2557 -1.4608 -1.1571 0.0899 -2.9086 0.2626 2.1822 -1.1667 -0.2177 1.1580 1.5362 -3.4964 -2.6617 -0.3683 2.6502 0.9243 2.7167 -2.9021 -1.6339 0.1561 3.5861 1.1796 0.3427 -2.6844 -2.1590 -0.8308 1.4980 0.7290 1.8050 -0.8473 0.0663 -0.3165 2.1893 0.7029 2.8921 -1.5555 -0.3541 0.1988 3.3900 0.9331 0.4346 -1.3720 -0.7344 -0.8058 1.2243 1.0586 -0.7712 -0.5289 -0.2251 -1.4536 -0.0392
0.5656 -2.8935 0.3657 1.9333 -0.9737 0.8505 -0.5080 -1.5327 -1.7590 1.3556 2.7540 -1.2466 -2.5804 -1.3096 2.5971 1.3649 2.8987 -2.5799 -2.3911 0.0786 3.0925 0.9810 1.4752 -0.6952 -1.6307 -1.7177 1.7449 0.7799 0.7547 -2.9476 -0.4788 0.3597 1.9427 1.0714 1.9017 -3.4781 -1.4178 0.8806 2.7969 0.7352 0.4295 -1.4950 -0.5118 -0.8663 1.3881 0.1990 -0.8682 -0.9957 0.5327 -1.3709 0.4187
-0.7077 -2.9366 -0.2933 1.4156 -1.8703 0.0825 -1.3502 -0.8928 -1.9670 1.0614 2.4254 -2.8839 -0.3050 0.6198 3.0461 2.0338 2.7531 -2.0199 -1.6789 0.2019 3.4263 0.2705 1.2460 -2.6226 0.1581 0.0092 1.9481 1.6227 0.9839 -0.6905 -1.8751 -1.2074 1.6810 2.3528 2.0354 -0.8927 -2.4287 -0.6567 2.8106 0.5134 0.4873 -1.5443 -0.6432 -0.9453 1.2068 -0.3709 -0.6772 -1.2478 -0.0687 -1.5758 -0.0393
-0.3365 -3.0796 0.0752 1.7095 -1.8021 0.3397 -0.5900 -1.5303 -2.1629 0.1315 2.7559 -1.6907 -2.5873 -0.1469 2.1743 1.4279 2.9161 -1.9985 -1.7076 0.5354 3.1581 -0.3553 1.4279 -1.4007 -1.9223 -0.8433 1.2434 1.8911 0.7175 -1.7968 0.1801 -0.2228 2.1948 2.3544 1.9010 -2.0586 -0.4127 0.5119 3.1913 0.4981 0.3968 -1.4042 -0.4718 -0.8982 1.2315 -0.0202 -0.9770 -1.2228 0.2111 -1.6622 0.1269
-1.6945 0.6755 -0.2813 -0.8659 -1.6344 -0.6631 1.6838 0.1453 0.5903 0.5559 0.9980 -3.9250 -0.2043 -1.0207 3.8948 1.7129 1.6595 -4.0726 -1.6288 -1.3565 4.1470 0.2158 0.4905 -2.6189 0.0624 -0.7166 2.6179 2.2470 1.4747 -1.8902 -2.2040 -1.0682 1.9929 2.6061 1.9083 -3.0584 -2.5798 -1.4028 3.2691 0.9932 0.7435 -1.5572 -0.9655 -0.7096 1.5987 0.7363 0.1784 -0.1963 -0.6706 -0.3648 0.1524
0.1698 -2.7449 -0.1290 1.6688 -0.9599 0.5488 -1.3281 -0.9333 -1.6121 0.4595 2.4972 -3.1713 -1.2304 -1.6068 3.6669 1.7597 2.6937 -2.9079 -1.7586 -0.2213 3.7520 -0.2280 1.4235 -2.4950 -0.6976 -1.9076 2.4761 1.8609 0.9552 -1.4803 -1.1429 0.2857 1.6458 2.5036 1.9330 -2.0384 -1.7575 0.6704 2.8121 0.4154 0.6451 -1.6124 -0.6248 -0.9318 1.4028 -0.2959 -0.5400 -1.0579 0.2260 -1.2581 0.1999
-1.0582 -2.5291 -0.8397 0.7483 -2.9102 0.7414 1.8417 -1.7670 -1.4883 1.4324 2.1902 -2.6947 -2.5856 0.4351 1.6937 0.8992 3.0476 -1.8115 -1.7162 0.8190 2.8357 1.3699 0.7753 -2.4140 -2.0253 -0.4523 0.8615 0.3273 1.4059 -0.3892 -0.0303 -0.5166 2.1754 0.2960 2.6769 -0.6348 -0.5290 0.3710 3.0961 0.7898 0.3234 -1.2919 -0.6747 -0.9410 1.0720 0.9475 -1.1150 -0.9376 -0.0328 -1.8131 0.0258
-0.3695 -2.9549 -0.1331 1.5916 -1.5579 0.1180 -1.2865 -1.0884 -1.9343 1.5974 1.8840 -3.1201 -0.3650 0.3648 3.3014 2.0674 2.6321 -2.1102 -1.8424 0.2140 3.3563 0.7444 0.7597 -2.8127 0.2000 -0.2212 2.2376 0.9303 1.4756 -0.5476 -1.9269 -0.9474 1.4316 1.7515 2.4507 -0.7846 -2.5941 -0.4020 2.5000 0.3758 0.5279 -1.5464 -0.5957 -0.9044 1.2361 -0.3526 -0.7236 -1.2186 0.0744 -1.5090 0.0265
0.6438 -2.6209 0.2825 1.6905 -0.5091 0.9292 -0.8449 -1.1975 -1.6593 2.6175 1.6489 -2.4969 -1.3158 -1.1353 3.7873 1.8386 2.6433 -2.9491 -2.4725 -0.2951 3.3856 1.9896 0.5232 -1.8477 -0.4736 -1.4068 2.7827 -0.0544 1.6946 -2.1703 -1.7807 -0.1272 1.2480 0.4686 2.6816 -2.8308 -2.7237 0.1680 2.2019 0.6844 0.5657 -1.5483 -0.6824 -0.8775 1.4453 0.0163 -0.6300 -0.9831 0.3986 -1.1259 0.4230
0.5455 -2.1966 -0.2507 1.5305 -0.1907 0.7879 -1.5840 -0.1480 -1.1562 1.2524 2.9317 -2.4770 -1.0926 -2.0567 3.6357 2.1125 2.3107 -3.2994 -2.0974 -0.9784 3.8198 0.3971 2.1315 -1.6313 -0.4412 -1.9917 2.4678 1.4729 0.2501 -2.6419 -1.6069 -0.0020 1.8520 2.2545 0.9466 -3.4083 -2.3739 -0.0224 2.9905 0.4840 0.7969 -1.6827 -0.6851 -0.9230 1.5157 -0.3990 -0.0360 -0.8407 0.2308 -0.8221 0.3189
0.0538 -3.0976 0.3673 1.8422 -1.5780 0.9991 0.4838 -1.8650 -2.0380 2.2442 2.2260 -1.4989 -2.9037 -0.1889 1.3531 1.1979 2.9757 -1.8789 -2.4115 0.5750 2.5286 2.0298 0.8260 -1.2179 -1.9491 -0.8807 0.7176 -0.2603 1.2608 -1.7402 -0.2864 -0.1134 2.2524 -0.0907 2.5163 -2.0212 -1.1943 0.6255 2.9690 0.7914 0.3233 -1.2770 -0.5686 -0.8502 1.1635 0.5675 -1.1232 -1.0601 0.4541 -1.6316 0.3816
-0.4480 -3.1709 0.0399 1.6873 -2.0372 0.2409 -0.5775 -1.6761 -2.2451 0.0463 2.5953 -1.9930 -2.3964 0.3008 1.7947 1.2068 2.9402 -1.4137 -1.4582 0.9374 2.7546 -0.3495 1.2058 -1.9830 -1.8380 -0.6653 1.0551 1.7322 0.8135 -0.8908 0.2838 -0.3292 2.1000 2.0877 2.0589 -0.8334 -0.2194 0.6167 2.9584 0.4748 0.2815 -1.4727 -0.4201 -0.9614 1.1440 -0.0109 -1.1132 -1.3078 0.1991 -1.7969 0.0518
-1.7323 0.3725 -0.6005 -0.6265 -1.8032 -0.7681 1.5072 0.2669 0.8295 2.3562 0.4521 -3.4858 -1.6642 0.2269 3.6037 1.8552 1.6252 -3.9034 -1.6905 -1.1896 4.0514 1.9652 -0.0495 -2.1892 -1.3170 0.3836 2.3196 0.6789 1.9568 -2.0077 -1.0724 -1.9756 2.0355 0.9982 2.4192 -3.1773 -1.4093 -2.2354 3.3402 1.1104 0.6573 -1.4401 -1.0116 -0.7555 1.4727 0.7156 0.1549 -0.1058 -0.6630 -0.5067 0.0252
-0.1109 -3.0338 0.0841 1.7845 -1.5525 0.2775 -1.0071 -1.3870 -1.9024 0.8107 2.2060 -3.1336 -2.5776 -0.4771 2.3860 1.5441 2.8716 -2.2287 -1.7473 0.3422 3.3062 0.2567 0.9241 -2.7690 -1.8800 -1.0614 1.4035 1.2727 1.2864 -0.6514 0.1647 -0.1333 2.2169 1.8083 2.4274 -0.9551 -0.4646 0.5152 3.2504 0.4661 0.4180 -1.5458 -0.4415 -0.8984 1.2921 -0.1500 -0.8854 -1.1710 0.2712 -1.5618 0.1405
-1.7212 0.0734 -0.7038 -0.1085 -1.7828 -0.5547 1.0764 1.1291 0.9495 1.9540 2.5527 -2.9527 -2.7062 -1.1404 3.1238 1.7737 1.6873 -3.9618 -1.6143 -1.6921 3.9659 1.5691 2.1545 -1.6192 -2.2933 -0.6847 1.9341 0.9600 0.0803 -2.6093 -0.0382 -1.2971 2.4075 1.2686 0.4167 -3.8227 -0.3545 -1.7411 3.6678 1.0838 0.9258 -1.3946 -0.9055 -0.7723 1.5207 0.5948 0.5630 -0.0331 -0.5386 -0.4723 0.0827
0.1066 -3.0865 0.2715 1.8889 -1.4829 0.6385 -0.3908 -1.6487 -2.0073 1.8142 1.9167 -2.8410 -2.7796 -0.4378 1.9415 1.3293 2.9322 -2.1096 -2.1277 0.4935 2.8982 1.4695 0.5638 -2.4699 -1.9192 -1.0984 1.1562 0.1895 1.5681 -0.7270 -0.0535 -0.0309 2.1990 0.5140 2.7906 -1.0117 -0.8563 0.6951 3.0434 0.6866 0.3464 -1.4057 -0.4856 -0.8988 1.2664 0.1974 -1.0247 -1.1236 0.4167 -1.5977 0.2810
0.3139 -2.9847 0.4307 1.9121 -1.1963 0.7869 -0.2707 -1.7004 -1.9328 2.2568 1.8578 -2.5019 -2.9005 -0.4768 1.7522 1.4403 2.8868 -2.2258 -2.3731 0.2972 2.9055 1.8622 0.5292 -2.0971 -1.9478 -1.0172 0.9815 -0.0999 1.5787 -1.2228 -0.2256 -0.0982 2.3581 0.2317 2.7823 -1.5773 -1.1283 0.4879 3.2100 0.7152 0.3590 -1.4290 -0.5384 -0.8235 1.2697 0.2740 -1.0064 -1.0754 0.4782 -1.4756 0.3675
-0.9252 -1.3461 -0.8675 1.1535 -1.5210 0.4590 0.1873 1.7070 0.5087 2.7390 0.7222 -3.0654 -2.0023 -2.3174 3.1264 2.0542 1.4495 -3.9613 -2.1701 -1.0806 3.9307 2.1380 0.4662 -1.7784 -1.3923 -2.1187 1.9509 0.2690 1.6944 -2.6036 -1.1694 0.2126 2.3864 0.8021 1.9792 -3.7519 -1.8122 0.1180 3.5949 0.8792 0.8558 -1.5424 -0.9264 -0.8033 1.5400 0.2973 0.6994 -0.1878 -0.1219 -0.7173 0.2612
0.5927 -2.3909 0.0091 1.6349 -0.3069 0.7763 -1.4296 -0.5502 -1.2631 1.9630 0.9871 -3.6074 -1.3979 -1.7899 3.6497 1.9890 2.2951 -3.3070 -2.2317 -0.5619 3.7107 1.2020 0.0952 -2.7641 -0.6235 -1.8645 2.5595 0.6599 2.0515 -1.4997 -1.4108 0.2482 1.7773 1.3413 2.8722 -2.2389 -2.2528 0.4062 2.8501 0.5649 0.5856 -1.6943 -0.6335 -0.8258 1.5464 -0.2830 -0.3087 -0.8831 0.3153 -0.9424 0.3785
0.9142 -1.8011 0.0946 1.2752 0.3812 1.2283 -1.4789 0.1901 -1.0200 2.8682 1.1541 -2.6546 -1.1855 -1.9723 3.7337 2.3191 1.8856 -3.6353 -2.4821 -1.2509 3.6807 1.9989 0.5545 -1.6725 -0.3954 -1.7375 2.6786 0.2236 1.5831 -2.8636 -1.9908 -0.2426 1.7285 0.9715 2.1111 -3.7819 -2.8896 -0.4538 2.7445 0.6787 0.7816 -1.6938 -0.7927 -0.8407 1.6040 -0.2821 0.1705 -0.7259 0.2477 -0.5130 0.5547

>  <OB_ATOM_TYPES> (1phgA1)
C.3 C.3 O.2 C.ar C.ar C.ar C.ar C.ar C.ar C.ar C.ar N.ar N.ar C.ar C.ar C.2 C.3

>  <ENSEMBLE_RMSD> (1phgA1)
0.000 0.444 0.502 0.822 0.917 0.919 0.920 1.079 1.081 1.116 1.119 1.202 1.261 1.266 1.334 1.336 1.405 1.418 1.481 1.498 1.500 1.502 1.504 1.504 1.507 1.599 1.614 1.656 1.682 1.702 1.744 1.745 1.760 1.764 1.789 1.812 1.827 1.903 1.910 1.971 2.013 2.025 2.046 2.047 2.054 2.062 2.143

$$$$
