
 OpenBabel03071213D

 37 40  0  0  0  0  0  0  0  0999 V2000
   -5.1270    9.7230   19.8940 N   0  0  0  0  0
   -3.0670   10.5440   19.1670 N   0  0  0  0  0
   -2.9600    5.8630   23.6500 O   0  0  0  0  0
   -0.2020    2.1160   21.2720 O   0  0  0  0  0
   -6.8830    5.7670   26.4350 O   0  0  0  0  0
   -6.3850    3.3620   25.9520 O   0  0  0  0  0
    0.1550    1.8800   26.1460 C   0  0  0  0  0
   -0.7040    3.0330   25.6500 C   0  0  0  0  0
    0.3010    0.9040   24.9820 C   0  0  0  0  0
    0.0190    3.6720   24.4880 C   0  0  0  0  0
    0.9050    1.5360   23.7450 C   0  0  0  0  0
   -4.6090    4.0870   23.7300 C   0  0  0  0  0
   -1.3330    4.4800   20.4500 C   0  0  0  0  0
   -5.5520    5.0200   24.2980 N   0  0  0  0  0
   -2.5950    3.9030   22.4990 N   0  0  0  0  0
   -0.5380    4.5410   30.0870 C   0  0  0  0  0
   -1.0030    3.2540   29.8900 C   0  0  0  0  0
   -1.1660    5.6080   29.4710 C   0  0  0  0  0
   -2.0960    3.0180   29.0710 C   0  0  0  0  0
   -3.3810    5.9010   20.0920 C   0  0  0  0  0
   -1.2360    6.9410   20.0230 C   0  0  0  0  0
   -3.9930    7.1200   19.8710 C   0  0  0  0  0
   -1.8530    8.1550   19.7970 C   0  0  0  0  0
   -2.8230    6.4310   27.9910 C   0  0  0  0  0
   -3.8740    6.2180   27.1290 C   0  0  0  0  0
   -3.7610    3.9040   27.5800 C   0  0  0  0  0
   -1.2700    4.1600   21.9520 C   0  0  0  0  0
    0.0740    2.6870   23.4200 N   0  0  0  0  0
   -3.8330    9.5270   19.5790 C   0  0  0  0  0
   -3.2810    4.7140   23.3230 C   0  0  0  0  0
   -2.0020    5.8060   20.1500 C   0  0  0  0  0
   -0.4280    2.9070   22.1940 C   0  0  0  0  0
   -3.2370    8.2680   19.7390 C   0  0  0  0  0
   -2.2320    5.3650   28.6300 C   0  0  0  0  0
   -2.6860    4.0860   28.4240 C   0  0  0  0  0
   -4.3660    4.9560   26.9430 C   0  0  0  0  0
   -5.8270    4.7820   25.9170 S   0  0  0  0  0
  1 29  1  0  0  0
  2 29  2  0  0  0
  3 30  2  0  0  0
  4 32  2  0  0  0
  5 37  2  0  0  0
  6 37  2  0  0  0
  7  8  1  0  0  0
  7  9  1  0  0  0
  8 10  1  0  0  0
  9 11  1  0  0  0
 10 28  1  0  0  0
 11 28  1  0  0  0
 12 14  1  0  0  0
 12 30  1  0  0  0
 13 27  1  0  0  0
 13 31  1  0  0  0
 14 37  1  0  0  0
 15 27  1  0  0  0
 15 30  1  0  0  0
 16 17  1  0  0  0
 16 18  2  0  0  0
 17 19  2  0  0  0
 18 34  1  0  0  0
 19 35  1  0  0  0
 20 22  2  0  0  0
 20 31  1  0  0  0
 21 23  1  0  0  0
 21 31  2  0  0  0
 22 33  1  0  0  0
 23 33  2  0  0  0
 24 25  2  0  0  0
 24 34  1  0  0  0
 25 36  1  0  0  0
 26 35  1  0  0  0
 26 36  2  0  0  0
 27 32  1  0  0  0
 28 32  1  0  0  0
 29 33  1  0  0  0
 34 35  2  0  0  0
 36 37  1  0  0  0
M  END
>  <MOLID> (1ppcA1)
1ppcA1

>  <SMILES_CANONICAL> (1ppcA1)
O=C(N[C@@H](C(=O)N1CCCCC1)Cc1ccc(cc1)C(=N)N)CNS(=O)(=O)c1ccc2c(c1)cccc2	

>  <FINGERPRINT> (1ppcA1)
0000000000000000000000001001000000000001100000000011001000000000000000010001000000000001000000000000010110110001000001100000000000000000000010001000000000000000000000000000000000000000000000000000000000000010000000000000000000100000000000000001000000001100000000000000000000001001100000000000000000001000000010001100001100001000001100000010000000000000011100000000000110111000000000001000011000000000100010000000001000000000000000000010000000000001100000000010000000000000000000000000000000001100100000000000000000000000000000000010000000000000000000100000000000000000000000000000000001100000000000000000100000000000000000000110011000000001100000000000010000000001000000000011100000100100100001100000100100000000000000000000000000000011101010110101000000000000001110000000001000000000000010000000000010000000000000000000000000000100010000000000000000000000000000000001000000000000000000000000110000001100000000000000010000001000001000000000011000000000000010110110000000000100010000000000001000000000000000010010011001100000

>  <MACCS166> (1ppcA1)
000000000000000000000000010000011000010000100000011001100111100100100000101111101001110100110110011001011100011100001111110110011111000111010100111100101111011010111000

>  <OB_MW> (1ppcA1)
521.21

>  <OB_logP> (1ppcA1)
4.7427

>  <OB_PSA> (1ppcA1)
153.83

>  <OB_MR> (1ppcA1)
146.757

>  <OB_ATOMIC_CHARGES> (1ppcA1)
0.2047061662 0.2047061662 -0.2716948219 -0.2730076631 -0.1515834718 -0.1515834718 0.0035128289 0.0215610379 0.0215610379 0.0934478271 0.0934478271 0.2016978006 0.0573599429 -0.0678418682 -0.1962101194 5.7e-09 4.884e-07 9.749e-07 4.00934e-05 -0.0039429009 -0.0039429009 0.0076707409 0.0076707409 0.0013705831 0.0199557515 0.0199552649 0.1755741922 -0.2781505387 0.476608146 0.2615023726 -0.0199508077 0.2458351553 0.0974576845 7.96986e-05 0.0013309784 0.1235634316 0.0772916271

>  <MCT_HBD> (1ppcA1)
4

>  <MCT_HBA> (1ppcA1)
9

>  <ENSEMBLE_TOTAL> (1ppcA1)
50

>  <ENSEMBLE_COORDS> (1ppcA1)
-1.0659 4.7106 -5.5269 1.1924 4.4668 -6.1162 -2.2125 -2.3608 -1.3938 0.5302 -2.0406 0.9110 -4.8822 0.1677 2.4060 -4.2025 -2.0127 3.4242 4.6131 -2.3601 -1.3566 4.0242 -2.7258 -0.0079 3.6426 -1.5057 -2.1498 2.6828 -3.4108 -0.1915 2.2831 -2.1745 -2.2639 -3.4621 -0.7123 -0.1760 1.0244 0.5366 -0.9357 -3.7848 -1.6209 0.9423 -1.1338 -0.4882 -0.5332 2.3482 0.3579 4.6867 2.0154 -1.0393 4.8678 1.4632 1.1881 4.1106 0.8156 -1.4985 4.4749 1.3954 1.1944 -3.3407 0.1339 2.6531 -1.8695 1.1988 2.0225 -4.3827 -0.0494 3.5681 -2.9828 -0.8105 1.5875 3.0311 -2.0162 1.1309 2.6552 -1.4795 -1.0821 3.4429 0.1868 -0.7224 -1.0815 1.7850 -2.5692 -0.9573 0.1950 4.1821 -5.3246 -2.2200 -1.2992 -0.7801 0.8068 1.5014 -2.0468 0.8441 -1.8183 -0.2588 0.4445 3.2496 -4.1927 0.1591 0.7034 3.6687 -0.1630 -0.6074 3.8585 -2.3776 -0.2494 2.8863 -3.9245 -0.9223 2.5028
-0.6397 2.0255 -7.4928 -0.6606 4.2704 -6.8108 -2.1362 -0.9719 -1.4208 1.2909 -0.4369 1.3564 -4.3805 1.1998 2.8167 -4.4398 -1.2594 3.2721 3.7159 -3.7713 -1.3211 3.5040 -3.4963 0.1543 2.6238 -3.1404 -2.1640 3.3736 -2.0083 0.4023 2.4529 -1.6655 -1.8540 -3.0642 0.6028 0.1363 1.1812 1.3975 -1.2598 -3.6635 -0.4440 0.9865 -0.7299 0.3843 -0.1621 2.3486 -1.3418 5.2460 1.6127 -2.5726 5.0472 1.7914 -0.1660 4.9125 0.3728 -2.5359 4.5323 1.4348 1.2824 -3.7600 -0.2039 2.7812 -2.7809 1.0877 1.6655 -5.0024 -0.6058 3.1700 -4.1204 -0.1604 1.1543 3.9366 -1.3923 1.1842 3.4015 -1.5855 -1.2091 3.5868 0.5057 0.1005 -0.8575 2.3165 -1.4677 -0.4246 -0.4487 3.0112 -6.5437 -1.9488 -0.0996 -0.5799 0.7506 1.8487 -2.6088 1.3989 -0.6036 0.1423 0.0249 2.6395 -5.1834 0.4471 -0.1084 4.3459 -0.2461 -1.2676 4.1605 -2.1497 -0.0369 3.2447 -3.7782 -0.1149 2.6662
1.2177 5.5284 -5.8187 2.8577 3.9411 -6.3666 -0.6258 -0.9417 1.0025 0.3901 -2.5349 -2.6943 -4.9387 -0.7498 3.3739 -3.8215 -2.9923 3.3781 3.9536 -1.0308 -0.0997 3.6258 -2.1913 -1.0193 2.7189 -0.1881 0.1573 3.0251 -1.6743 -2.3127 2.0805 0.2632 -1.1436 -2.5546 -2.3405 0.7237 -1.1885 0.0843 -3.0857 -3.5707 -1.4548 1.3285 -1.5046 -1.2708 -1.1185 1.9900 0.0665 6.1269 1.7830 -1.3654 6.1674 1.1123 0.8498 5.4798 0.7016 -1.9047 5.5810 0.1704 0.8946 -5.0105 -0.3026 2.4189 -3.1798 0.8417 1.8503 -5.6771 0.4589 3.4407 -3.8766 -1.0346 1.1202 4.1408 -2.1402 0.5901 3.5944 -1.4858 -1.6250 4.3012 -0.5335 -0.4777 -1.8398 1.8579 -0.8622 -2.0343 1.7324 4.2467 -5.7818 -1.4625 -1.4268 0.2486 -0.4172 1.1885 -3.7133 0.5960 -1.4196 -2.2167 0.9956 3.1647 -5.0787 -0.0678 0.2801 4.8376 -0.2781 -1.0652 4.9000 -2.3851 -0.8311 3.6947 -3.7973 -1.5810 3.0314
0.2458 3.9278 -6.6872 0.1286 5.6562 -5.1061 -1.7785 -2.6257 -1.2858 0.9912 -1.8751 0.8489 -4.8035 -0.5430 2.5244 -3.7595 -2.5491 3.5976 3.7916 -3.8686 -2.7664 3.2740 -4.3501 -1.4253 2.9079 -2.7830 -3.3508 3.0584 -3.1865 -0.4797 2.6591 -1.6639 -2.3569 -3.2048 -1.1756 -0.0118 0.9910 0.7530 -0.9696 -3.3282 -2.1101 1.1249 -0.9643 -0.5910 -0.5047 1.8522 1.4347 5.3332 1.6215 0.1338 5.9248 1.0366 1.8841 4.3656 0.5873 -0.6177 5.5118 -0.1628 2.7174 -2.0079 1.4941 1.4991 -3.2935 -0.3614 3.5811 -3.0211 1.2974 2.4400 -4.3813 -0.9877 1.5593 2.8596 -2.0353 0.8205 2.4630 -1.4537 -0.9341 4.0146 0.3511 -0.6170 -1.1121 2.1867 -2.2133 -1.1006 0.2495 4.3870 -5.3831 -1.9188 -1.5691 -0.6795 0.7803 1.6201 -2.1593 1.2061 -1.6031 -0.3326 0.3973 3.4310 -4.2518 -0.0908 1.0808 3.9048 -0.3134 -0.1417 4.4661 -2.2803 -0.4733 3.0599 -3.6647 -1.4351 2.6678
0.3853 5.7217 -4.8145 0.3470 3.9539 -6.3521 -2.1369 -2.5293 -1.4048 0.5689 -2.1075 0.9406 -4.7448 -0.0513 2.4093 -4.5010 -2.3935 3.2525 4.7566 -2.3301 -0.8882 3.9860 -2.9094 0.2824 3.9133 -1.3098 -1.6296 2.6730 -3.5003 -0.1991 2.5782 -1.9019 -2.0459 -3.4738 -0.9300 -0.2057 0.9161 0.5572 -0.8177 -3.8405 -1.8875 0.8543 -1.1538 -0.6270 -0.4965 2.1616 1.1522 3.9049 1.3896 2.1354 3.1747 1.6161 -0.0371 4.2053 0.1324 1.8554 2.7926 -0.0859 2.6535 -1.7744 1.4280 1.3283 -3.1279 -0.2365 3.5518 -2.7666 1.2884 2.3077 -4.1893 -0.3532 -1.6407 4.1276 -1.6022 -1.9310 3.7336 -1.8437 0.2406 2.7049 0.1871 -0.7598 -1.0278 1.8978 -2.5027 -0.9120 0.3994 4.3735 -5.1172 -2.1992 -1.4745 -0.7836 0.7629 1.4874 -1.9693 0.8995 -1.8290 -0.2122 0.4771 3.3673 -4.0201 0.2496 -0.3538 3.8047 -0.4774 0.5681 3.1105 -2.3784 -0.9575 3.0005 -3.9866 -1.2905 2.4557
-1.7561 3.2825 -7.5809 -0.8842 1.1778 -8.1340 -1.5798 -0.5219 -0.1280 2.2446 1.1204 0.7910 -3.4773 2.0766 3.6327 -4.5330 -0.1853 3.4724 3.9173 -3.1594 -1.1510 2.8153 -2.5893 -2.0235 4.5030 -2.1064 -0.2307 1.7666 -1.8694 -1.1968 3.4172 -1.4078 0.5621 -2.2736 1.5874 0.8427 1.4143 1.7679 -2.0627 -3.3547 0.7770 1.4298 -0.2464 1.3652 -0.3365 1.4892 -3.2815 5.5079 0.2978 -4.0518 5.2206 1.5141 -1.9639 5.2478 -0.7837 -3.4452 4.7039 -0.5253 2.3888 -3.5346 1.4272 1.3309 -4.5081 -1.1156 2.4850 -4.7391 0.8085 1.4677 -5.8165 0.3581 0.1394 4.3909 -0.7343 0.7497 3.9034 -1.9520 -1.3301 3.8902 0.8101 0.7538 -1.1102 2.4058 -0.8938 -0.3355 -1.0320 2.1463 -7.2724 -1.3594 0.6657 0.0803 0.7793 1.7566 -3.4081 1.8664 0.3593 -0.0995 -0.4202 2.0063 -5.9214 0.3493 -1.2899 4.6824 -0.7771 -2.0127 4.4232 -1.9453 -0.0041 3.6657 -3.4342 0.7082 3.1425
0.1571 2.6811 -8.3077 -1.8739 3.2853 -7.3012 -1.3000 -1.0888 0.1512 2.0157 0.0233 0.7647 -3.7829 1.6961 3.4415 -4.9514 -0.4925 3.1075 3.4427 -3.8241 -2.0705 3.3964 -3.5525 -0.5796 2.4319 -2.9811 -2.8243 3.5322 -2.0706 -0.2947 2.5548 -1.5110 -2.4719 -2.0714 1.0426 0.9994 1.4893 1.5124 -2.0164 -3.2907 0.2971 1.3492 -0.2396 0.8902 -0.4558 1.8215 -1.6626 6.3101 1.8739 -0.2441 6.0254 0.7539 -2.3823 5.9288 0.8603 0.3480 5.3725 0.1145 3.0012 -3.4912 1.1272 1.0042 -4.4258 -0.3718 3.3566 -4.6955 0.5590 1.3553 -5.7134 -1.5167 -2.5253 4.7896 -2.5249 -1.9373 4.1270 -1.4131 0.2017 4.2265 0.8088 0.3589 -1.3003 2.5229 -1.3421 -1.0320 -0.6524 2.8394 -7.1981 -1.1951 0.1314 0.1859 0.8964 1.7820 -3.3527 1.8477 -0.3024 -0.4106 -0.1400 2.4967 -5.8440 -0.3548 -1.7552 5.2169 -0.3028 -0.4207 4.9414 -2.4809 -0.5212 3.8443 -3.7437 0.3104 3.0040
-0.9377 4.7631 -5.2118 1.3692 4.6938 -5.6215 -2.2506 -2.4192 -1.3796 0.5032 -2.3009 0.9080 -4.7113 0.0812 2.5392 -4.4467 -2.2694 3.3511 4.5957 -2.5404 -1.3642 3.9969 -2.9790 -0.0420 3.6444 -1.6174 -2.1019 2.6435 -3.6251 -0.2714 2.2715 -2.2489 -2.2602 -3.4577 -0.7749 -0.1097 1.0469 0.3944 -0.7444 -3.8648 -1.7350 0.9346 -1.1209 -0.6246 -0.4252 2.1988 1.3852 3.7611 1.3643 2.3604 3.0913 1.7022 0.1745 4.0636 0.0963 2.0521 2.7720 1.7019 1.3627 -2.9706 -0.0329 2.4364 -1.6597 1.5423 2.2524 -3.9672 -0.1882 3.4153 -2.7213 -0.2283 -1.4859 4.0489 -1.4897 -1.8013 3.7133 -1.8342 0.3836 2.7537 0.1961 -0.8410 -0.9901 1.7639 -2.7187 -0.9828 0.3338 4.2977 -4.9329 -2.2297 -1.3846 -0.7222 0.8544 1.4331 -1.7918 0.8303 -2.0020 -0.2409 0.5539 3.3108 -3.8385 0.3262 -0.1758 3.7265 -0.4598 0.7410 3.0938 -2.3286 -0.8335 3.0434 -3.9545 -1.1600 2.5493
-2.3002 2.2059 -7.6642 -0.3808 1.0664 -8.3639 -1.0273 -0.5381 0.2728 2.7373 1.1140 0.3033 -3.5575 2.0334 3.5964 -4.4561 -0.2882 3.3497 2.8796 -3.5935 -1.3102 3.3927 -2.8663 -0.0830 1.6950 -2.8735 -1.9260 3.6970 -1.4176 -0.4037 2.0098 -1.4137 -2.1921 -1.9886 1.5699 0.9807 1.3241 2.1222 -2.1718 -3.1010 0.7199 1.4427 0.0426 1.4608 -0.2162 1.4459 -2.9486 6.2056 0.2953 -3.7761 5.9090 1.4601 -1.6586 5.8310 -0.7611 -3.2488 5.2686 1.3891 1.2677 -4.5383 -0.4407 2.6842 -3.8166 0.8599 1.1628 -5.7710 -1.0089 2.5772 -5.1471 0.3162 0.3299 4.7168 -0.7536 0.8601 4.1017 -1.9156 -1.2499 4.1894 0.9135 0.9809 -1.2640 2.5310 -0.7942 -0.9886 -1.0373 1.6935 -7.4255 -0.9717 0.6861 0.3088 0.6926 2.0270 -3.5128 2.1578 0.4711 -0.5715 -0.3921 1.8354 -6.0849 0.3215 -1.0697 5.1320 -0.7664 -1.8463 4.8627 -1.9231 0.0493 3.8431 -3.3791 0.6653 3.1372
-0.4242 4.3591 -5.8935 -0.6481 5.6341 -3.9431 -1.7809 -2.4020 -1.4743 2.0287 -2.6019 -0.0150 -4.5796 -0.6030 2.4131 -3.4227 -2.3924 3.7280 3.1182 -4.3049 -4.6126 2.3877 -2.9810 -4.7197 3.7644 -4.4689 -3.2520 1.4161 -2.7882 -3.5712 2.7597 -4.2527 -2.1390 -2.4576 -0.8952 0.2593 1.7170 0.1335 -1.3697 -2.5885 -1.8510 1.3776 -0.1962 -1.0538 -0.4381 1.1744 2.3012 6.3384 1.1064 0.9356 6.8141 0.4200 2.6863 5.2955 0.2844 0.0579 6.2156 1.6314 1.4072 -3.5408 0.3908 2.2094 -1.6167 1.2121 2.4501 -4.2821 -0.0969 3.3089 -2.4261 -1.3110 2.1441 3.5029 -2.1567 1.2725 2.9289 -1.4656 -0.4695 4.4418 0.8270 -1.0911 -1.4574 2.0927 -2.9780 -2.3020 -0.2802 4.5273 -4.5292 -1.4653 -1.5445 -0.6565 1.1886 1.2736 -2.1623 1.6785 -2.3069 -1.1582 0.3062 3.4311 -3.7040 -0.4790 1.7455 4.6337 -0.5482 0.4620 5.0871 -2.2537 -0.0829 3.4233 -3.3502 -1.2717 2.8042
-2.4063 2.6730 -7.2187 -0.5289 1.7713 -8.2971 -1.4411 -0.6769 0.1739 2.1919 0.3170 0.7181 -3.2780 2.3710 3.5787 -4.5853 0.2366 3.5046 4.5002 -2.3873 -2.4227 4.7506 -1.7565 -1.0671 3.2398 -1.8207 -3.0478 3.5448 -1.9616 -0.1704 2.0483 -1.9556 -2.1148 -2.0001 1.5618 0.9127 1.5682 1.4016 -2.1588 -3.1859 0.8975 1.4814 -0.1175 1.1299 -0.4365 0.9560 -3.1188 6.3821 -0.3606 -3.7176 6.3226 1.1762 -1.9286 5.8009 -1.3632 -3.0759 5.7003 0.9814 0.6076 -4.4709 0.2149 2.7817 -3.7173 0.3390 0.7529 -5.6433 -0.4426 2.9624 -5.0017 0.3250 0.0737 4.4848 -0.6784 0.7228 3.8742 -2.2226 -1.0531 4.4086 0.8293 0.4175 -1.2689 2.3525 -1.4266 -0.7963 -1.1273 2.1503 -7.2011 -1.1908 0.5230 0.1825 0.8786 1.6405 -3.4538 1.8554 -0.2100 -0.3430 -0.4017 1.9734 -5.9133 0.0994 -1.2192 5.1189 -1.1441 -1.7765 5.0735 -2.0034 0.1448 3.8398 -3.3738 0.9745 3.1861
-0.1525 4.1130 -7.6832 2.0846 3.4273 -7.6326 -1.6900 -2.1110 -0.8341 2.0346 -0.2646 -0.0879 -4.5240 -1.1362 3.3477 -3.2598 -3.1898 4.0099 2.5106 -3.6114 -3.7662 3.1085 -3.4563 -2.3820 1.1666 -2.9168 -3.8729 3.1542 -1.9999 -1.9664 1.2451 -1.4731 -3.4127 -2.6161 -0.8151 0.9760 0.2878 1.6331 -1.6264 -2.6683 -2.0314 1.8131 -0.7310 -0.0757 -0.2582 1.5225 0.8725 7.3520 1.6239 -0.5715 7.3679 0.5874 1.4678 6.5941 0.7792 -1.3129 6.6314 -0.6692 2.1258 -3.9027 1.6985 2.4466 -3.4940 -0.5401 2.5611 -5.1697 1.8350 2.9429 -4.8517 -1.3421 1.3151 4.9448 -2.1871 0.5799 4.2059 -1.1823 -1.4680 4.9986 0.0821 0.1406 -1.4401 1.8392 -1.4079 -2.0910 0.9237 3.5261 -7.0442 -1.6422 -1.1035 -0.1364 0.4987 2.0386 -3.0411 1.4217 -0.5000 -1.1295 0.7614 2.9852 -5.6619 -0.3325 0.6780 5.7816 -0.2444 -0.6828 5.8012 -2.1175 -0.8634 4.2438 -3.2658 -1.8622 3.4167
0.1467 4.3145 -7.5037 2.0597 2.9757 -7.7051 -2.1318 -1.8576 -0.8564 1.7996 -0.5636 0.0398 -4.6679 -0.7277 3.4572 -3.6621 -2.9548 3.9934 3.1355 -2.5800 -4.2147 1.9955 -1.6037 -4.4336 3.7501 -2.3984 -2.8414 0.9671 -1.6830 -3.3197 2.6906 -2.5144 -1.7640 -2.8216 -0.5429 1.0405 0.3860 1.5427 -1.5732 -2.9740 -1.7786 1.8350 -0.8927 0.0022 -0.2240 1.7221 0.2466 7.3272 1.6215 -1.1965 7.2700 0.8583 1.0053 6.6331 0.6599 -1.7736 6.5301 -0.5841 2.1835 -3.8055 1.8188 2.2006 -3.4867 -0.4502 2.6169 -5.0728 1.9657 2.6983 -4.8436 -1.1253 1.2063 5.0512 -2.0889 0.6323 4.3139 -1.3513 -1.5699 4.9701 -0.0278 0.0933 -1.3847 1.6116 -1.5856 -2.0236 1.0523 3.4031 -6.9943 -1.9276 -0.9019 -0.1157 0.5955 1.9330 -2.9928 1.2052 -0.7141 -1.0281 0.8747 2.8798 -5.6100 -0.1877 0.3946 5.8187 -0.2893 -0.9643 5.7708 -2.2210 -0.8069 4.2843 -3.5131 -1.6111 3.4584
-2.4918 2.7478 -6.4588 -2.2769 4.5663 -4.9971 -1.0855 -2.2715 -0.8339 3.2386 -1.7053 -0.5394 -1.3809 1.9935 1.3452 -3.6530 1.3759 2.1699 3.9267 -3.6992 -4.8171 4.6795 -3.5502 -3.5098 2.7329 -2.7643 -4.8546 3.7483 -3.7867 -2.3365 1.8353 -2.9602 -3.6459 -0.8546 -1.1382 1.2744 1.9077 0.3831 -2.2516 -2.1401 -0.4172 1.2299 0.6432 -0.7487 -0.5127 -0.5107 -0.3782 8.4592 -1.0350 -1.5542 7.7977 -0.4150 0.7799 7.7861 -1.4338 -1.4828 6.5165 0.8867 0.9939 -4.4633 0.1384 2.1110 -2.4432 0.0171 1.6991 -5.2096 -0.8278 2.8434 -3.2404 -0.7385 2.1245 5.6498 -1.1269 2.1960 4.3669 -1.7714 -0.1296 4.3747 1.3228 -0.9357 -1.7776 2.5990 -2.9076 -2.4120 -1.9251 3.3628 -5.3582 -0.4859 -1.4507 -0.1485 0.9304 1.1914 -3.0243 2.4836 -1.8692 -1.4985 -0.8804 2.6483 -4.5707 -0.8392 0.8737 6.3924 -1.3409 -0.2312 5.7695 -1.6434 1.0239 3.6953 -2.2334 1.0660 2.0763
-0.4968 3.2817 -8.3324 1.5286 2.1040 -8.4093 -1.6573 -1.4213 -0.3325 2.1332 0.3520 -0.0656 -4.3136 0.6202 3.5885 -4.3234 -1.8599 3.9179 3.2991 -2.5811 -3.9034 2.0792 -1.7447 -4.2388 4.0489 -2.0165 -2.7132 1.1951 -1.5348 -3.0236 3.1234 -1.8189 -1.5297 -2.3108 0.2302 1.3165 0.4278 1.9464 -1.9923 -3.0539 -0.8834 1.9327 -0.5957 0.6414 -0.2450 1.5614 -1.4142 7.8417 0.8991 -2.6808 7.6119 1.1412 -0.3126 7.1984 -0.1393 -2.7503 6.7625 -0.7500 1.9700 -4.2153 1.6530 2.2803 -4.1199 -0.7470 2.1163 -5.5530 1.6558 2.4704 -5.5597 -0.4434 0.8134 5.5532 -1.4858 0.7456 4.7098 -1.7482 -1.6133 5.1410 0.1802 0.5451 -1.4638 1.9829 -1.0190 -1.9206 0.5318 2.5898 -7.7215 -1.5087 -0.3094 0.1608 0.5002 2.0230 -3.4748 1.5104 -0.0520 -1.0480 0.5033 2.3747 -6.2475 0.0188 -0.3717 6.2671 -0.6112 -1.5626 6.0566 -2.1794 -0.5072 4.5092 -3.6086 -0.6507 3.5421
1.7094 4.8133 -5.6951 -0.6283 4.7982 -5.4946 -1.7945 -2.7389 -1.1574 1.0324 -2.0632 0.9304 -4.7060 -0.9166 2.8588 -3.7267 -3.0494 3.7241 3.8015 -3.7050 -2.8975 3.3334 -4.3079 -1.5878 2.8602 -2.6199 -3.3835 3.0709 -3.2322 -0.5539 2.5807 -1.5948 -2.3012 -3.2205 -1.3947 0.2317 0.8939 0.6876 -0.6843 -3.3201 -2.4120 1.2961 -1.0032 -0.7410 -0.2641 1.4592 2.4771 4.0879 0.3792 3.1367 3.3848 1.3515 1.1783 4.4121 -0.7269 2.4486 3.0559 -0.1468 2.6919 -1.7747 1.5549 1.4400 -2.9638 -0.2252 3.5915 -2.7737 1.4355 2.3754 -4.0657 0.0276 -0.9947 4.4075 -1.0737 -1.6859 4.0746 -2.0537 0.2675 3.0521 0.2914 -0.6876 -0.9122 2.1447 -2.2574 -1.0878 0.5413 4.3812 -5.0949 -1.9422 -1.7250 -0.4839 0.7744 1.5703 -1.8756 1.1941 -1.7086 -0.2377 0.5940 3.4189 -3.9618 0.1569 0.4163 4.0627 -0.8606 1.0357 3.3994 -2.1581 -1.0337 3.3767 -3.6007 -1.8599 2.8967
-1.5584 4.4296 -5.7468 -2.7754 4.3002 -3.7558 -0.5498 -2.7602 -0.7579 3.6973 -1.8704 -0.8858 -1.7618 1.5634 0.9696 -3.9762 0.5275 1.4877 2.2984 -5.4032 -3.9880 3.2976 -5.2723 -2.8558 1.2307 -4.3297 -3.8952 3.8976 -3.8807 -2.8318 1.8430 -2.9429 -3.8274 -0.6145 -1.3863 1.2136 2.0875 0.3408 -2.0739 -2.0047 -0.9773 0.9458 1.0673 -1.1246 -0.4261 0.1581 1.4047 7.7556 0.9702 2.0289 6.7326 -0.9721 0.7625 7.4161 0.5953 1.9572 5.4448 0.0392 1.7724 -1.9188 1.1582 1.5168 -4.0537 -0.8343 2.6474 -2.4454 0.2014 2.4479 -4.6292 -2.6017 -0.0420 5.6227 -2.9559 -0.1348 4.3291 -1.0305 1.1438 3.6635 1.6070 -1.0647 -1.7675 2.8509 -2.8825 -2.7850 -1.7389 3.9426 -4.4656 -0.0687 -1.8371 -0.1095 1.0620 1.1703 -2.7572 2.8240 -1.9654 -1.7491 -0.7532 2.9980 -3.8550 -1.3900 0.6684 6.0205 -0.6202 1.2488 5.0576 -2.1516 0.4928 3.3044 -2.5276 0.5099 1.6170
2.6644 5.3706 -3.4391 2.0553 5.1623 -5.6958 0.2362 -1.3135 0.6662 -0.3519 -3.0383 -3.2628 -3.8291 -2.8672 3.0896 -1.8525 -3.6300 4.4143 4.0152 -3.1349 -1.6280 3.0847 -4.0297 -2.4238 3.2665 -1.9256 -1.1005 2.4218 -3.2442 -3.5405 2.5754 -1.1807 -2.2273 -2.0181 -2.1710 0.8304 -0.9384 -0.0557 -3.1976 -1.5294 -2.9218 1.9978 -1.1476 -1.3798 -1.1984 -0.2125 3.2756 5.6836 0.8417 2.5761 4.9797 -1.4321 2.7218 5.7812 0.6031 1.3690 4.4396 -0.2977 2.3194 -2.6753 0.5344 1.2587 -4.6939 0.3522 3.4605 -2.9695 1.2659 2.4750 -4.9953 -3.0293 0.7989 5.2967 -3.2712 -0.4054 4.7554 -0.9943 -0.5698 3.9724 -0.2010 -0.8939 -2.1729 1.7446 -2.0786 -3.0095 1.9940 4.7332 -4.4653 -0.8272 -1.5905 0.1246 -0.1850 1.1712 -3.5607 0.3641 -2.1259 -2.8508 1.1687 3.5320 -4.1691 -1.7101 1.4130 5.1964 -0.7149 0.7478 4.5426 -2.2202 -1.1160 4.0634 -2.4255 -2.7128 3.4422
-3.4336 0.4460 -6.7539 -3.3133 2.7840 -6.6841 -0.2748 -0.0800 0.2165 3.8971 0.7043 -0.9423 -0.8672 3.3896 3.7051 -3.1474 2.4593 3.2493 3.1552 -4.2150 -0.8777 4.1607 -3.2706 -0.2498 1.8590 -3.5045 -1.2169 4.3664 -2.0442 -1.1148 2.1025 -2.2537 -2.0411 0.1145 2.1111 1.1475 1.9419 1.2809 -3.1266 -1.3207 2.1794 1.4827 1.2024 1.3902 -0.8145 -1.1212 -3.6546 6.2625 -2.5101 -3.3712 5.9675 -0.1662 -2.7884 5.8865 -2.8416 -2.2392 5.3243 0.4316 0.3406 -4.8996 -0.0625 2.5049 -3.9214 -0.6617 0.4115 -5.6804 -1.2601 2.5679 -4.7380 0.5188 -0.6117 4.7578 0.1876 0.5240 4.1238 -2.1571 -0.0404 4.2227 1.6782 0.5015 -1.8522 3.0917 -1.4168 -1.3891 -2.8141 1.6202 -6.3685 0.2839 1.0084 0.1407 0.7262 1.4161 -3.9683 3.0062 -0.0347 -1.3619 -1.5447 1.5632 -5.5869 -0.5082 -1.5574 5.1806 -1.8168 -1.2851 4.9089 -1.2002 0.8303 3.8563 -1.7023 2.3341 3.1551
2.6738 3.1358 -6.2109 0.9496 4.7214 -6.1100 -2.0531 -2.4963 -1.1344 1.2912 -0.4955 0.9456 -4.4458 -1.4456 3.4530 -3.2291 -3.5803 3.9272 3.0448 -3.3659 -2.7644 3.1864 -3.4040 -1.2569 1.7087 -2.7860 -3.1861 2.8996 -2.0468 -0.6528 1.4267 -1.4568 -2.5115 -3.4995 -1.6161 0.5683 -0.2544 1.3680 -0.6558 -3.3326 -2.7274 1.5267 -1.4117 -0.6175 0.0743 1.6072 2.2573 3.9156 0.3211 2.9028 3.7572 1.6791 0.9175 3.9791 -0.7929 2.1608 3.6442 1.6092 2.1793 -2.1273 -0.6942 2.4347 -2.8516 2.0620 2.7416 -3.2626 -0.2074 3.0154 -4.0893 0.5432 -1.3629 3.8576 -0.5565 -2.1029 3.6401 -1.9166 -0.1204 3.4763 -0.3466 -0.1417 -0.7777 1.5989 -1.5731 -1.0759 1.5826 3.7080 -5.5858 -2.2557 -1.6488 -0.2723 0.1798 1.9988 -1.9272 0.9218 -0.7340 -0.2025 1.1155 3.1698 -4.2788 0.4785 0.0956 3.8496 -0.7276 0.7033 3.6664 -1.8392 -1.4628 3.4550 -3.3170 -2.3254 3.1977
-3.1057 0.2592 -7.2964 -3.3894 2.5414 -6.8612 0.0304 -0.1542 0.4230 3.9411 0.9761 -1.0929 -0.7600 3.2501 3.9365 -3.0479 2.4299 3.3307 3.3566 -3.7733 -0.5249 4.4283 -2.7416 -0.2342 2.0264 -3.0988 -0.7987 4.5329 -1.7491 -1.3756 2.1468 -2.0745 -1.9114 0.3092 2.0295 1.3944 1.7780 1.5418 -3.0685 -1.1397 2.1316 1.6541 1.2236 1.4890 -0.7111 -1.4810 -3.9316 6.0653 -2.8229 -3.5885 5.6444 -0.4707 -3.0740 5.8469 -3.0560 -2.4104 5.0424 -0.3993 2.4846 -3.8649 0.4800 0.4744 -4.8996 -1.4585 2.4861 -4.6945 -0.6554 0.4827 -5.8045 0.3813 -0.8522 4.9389 0.1444 0.3341 4.3565 -2.2071 -0.1692 4.1683 1.6660 0.6814 -1.8257 3.2410 -1.1569 -1.6534 -2.7396 1.4281 -6.6544 0.4690 0.9865 0.3272 0.5922 1.4251 -3.9544 3.0590 0.2042 -1.4697 -1.5903 1.4452 -5.7019 -0.7054 -1.7922 5.1893 -1.9705 -1.4643 4.8007 -1.2007 0.7006 3.9720 -1.6059 2.2494 3.3072
-1.5342 4.8575 -3.4205 0.6529 5.2368 -4.1795 -1.9371 -1.5715 -2.0778 1.4433 -3.1813 0.3775 -4.2886 -1.3332 2.8360 -2.5912 -2.9960 3.6077 3.4774 -4.5770 -3.9686 3.0874 -5.3029 -2.6965 2.6492 -3.3229 -4.1726 3.1098 -4.3678 -1.5047 2.6673 -2.4347 -2.9429 -2.7417 -1.2250 0.1497 1.6485 -0.1962 -0.7389 -2.6010 -2.2868 1.1667 -0.4134 -1.4020 -0.3345 0.4142 3.9534 3.9199 -0.8275 4.2159 3.2235 0.7434 2.6928 4.2446 -1.6448 3.1995 2.8995 1.6905 1.3302 -2.7383 0.3357 1.9114 -0.8109 1.2586 2.4155 -3.4067 -0.1110 3.0980 -1.5183 0.2119 0.2064 4.2554 -0.5990 -0.8127 3.9324 -2.1752 0.6967 2.9014 0.8006 -1.3973 -1.1182 2.2902 -3.2050 -1.7732 -0.1940 4.5257 -3.4870 -1.6732 -1.4411 -0.8866 1.1832 1.0507 -1.4049 1.5505 -2.6601 -0.7331 0.3192 3.3253 -2.7725 -0.1346 1.5778 3.9036 -1.3027 1.8213 3.2431 -1.8392 -0.5636 3.2330 -2.9255 -1.8380 2.7924
-2.0583 4.8727 -4.6491 -2.8471 2.9349 -5.7102 -1.0487 -2.2579 -1.2158 3.3870 -2.0553 -0.6252 -0.7820 1.6696 1.3961 -3.2225 1.4964 1.9034 3.8113 -4.1091 -5.1474 4.2601 -4.4907 -3.7508 2.5951 -3.2027 -5.1196 4.4479 -3.2602 -2.8882 2.7913 -2.0158 -4.1942 -0.8377 -1.4515 1.0401 1.9416 0.3732 -2.1121 -1.9982 -0.5413 1.0087 0.8811 -1.1443 -0.5512 -1.3268 0.3579 8.6646 -2.6189 0.9080 8.3130 -0.4641 0.0088 7.6965 -2.9492 1.0754 7.0211 0.1486 2.1205 -2.1097 0.6659 0.9539 -4.1733 -0.7964 2.8557 -2.7242 -0.3341 1.7638 -4.8456 0.1163 -0.2044 5.2289 -0.2122 -0.0468 3.9372 -2.3559 0.8813 4.5409 1.5459 -1.0659 -1.8354 3.2330 -2.4733 -2.8909 -2.0271 3.5098 -4.8741 -0.3885 -1.6512 -0.3800 0.8914 1.1176 -2.8567 2.8196 -1.8842 -1.7051 -1.0441 2.6649 -4.1432 -0.8092 0.1781 6.2883 -2.0233 0.7018 5.9545 -1.4977 0.5077 3.5741 -1.8946 0.9024 1.9345
1.7973 5.2220 -4.7807 2.1167 5.3490 -2.4610 -0.2453 -2.0845 1.0965 0.0258 -3.4544 -2.8417 -4.4705 -1.9389 3.2496 -2.9390 -3.3371 4.6518 4.7501 -1.9289 -2.4156 4.0239 -2.9313 -3.2907 3.8105 -0.8539 -1.9033 2.8113 -3.4967 -2.5796 2.5885 -1.4540 -1.2329 -2.6324 -2.4228 0.8825 -0.6830 -0.5153 -2.8592 -2.5122 -3.1790 2.1417 -1.2801 -1.8976 -0.9721 0.0505 3.5726 3.7871 -1.1795 3.6846 3.0318 0.4038 2.3907 4.3174 -1.9633 2.6066 2.8611 0.8535 1.0478 -4.0660 -0.3382 1.8316 -2.1034 1.4232 2.2545 -4.2408 0.2589 3.1405 -2.3006 -0.0656 -0.0770 4.7186 -0.8490 -1.1547 4.5572 -2.4358 0.1282 3.2665 -0.1636 -1.3423 -1.7007 1.9646 -2.4186 -2.1184 1.6983 4.6927 -3.5081 -1.2435 -2.1273 0.3866 -0.0386 0.8210 -2.9401 0.5914 -2.5305 -2.2574 1.1171 3.3351 -3.3185 -0.4373 1.2108 4.1442 -1.5958 1.3134 3.4322 -2.0850 -1.0490 3.8156 -3.1278 -2.4071 3.5506
-1.2137 5.3364 -2.5018 -2.0109 4.0979 -4.3245 -0.8856 -3.2319 -0.7707 3.1349 -3.1228 -0.9702 -2.3028 0.4597 0.5021 -4.0609 -0.3868 2.0591 3.1043 -3.5143 -5.9738 2.1096 -2.4553 -5.5399 4.1572 -3.7553 -4.9110 1.5224 -2.7677 -4.1762 3.5235 -4.0426 -3.5652 -0.7100 -2.2008 1.4017 2.0823 -0.2554 -1.7271 -2.1560 -1.9201 1.3942 0.8788 -1.7965 -0.2940 -0.5786 2.4302 7.5134 -1.9256 1.9151 7.6396 0.0872 2.2869 6.3555 -2.5071 1.2978 6.5978 0.6141 1.6790 -1.1408 0.9602 1.1171 -3.4762 -0.1713 2.7184 -1.4740 0.1343 2.2562 -3.8393 0.1800 1.4452 3.9507 -0.4088 0.8415 2.9052 -2.4187 0.4810 4.1831 1.3838 -1.5990 -1.6352 2.5855 -2.9959 -3.2166 -1.2505 4.1869 -3.2680 -0.2952 -2.4645 -0.0187 1.1744 0.8298 -2.1792 2.4319 -2.6708 -1.8741 -0.4218 3.0124 -2.8750 -0.5283 1.6150 5.2150 -1.7980 1.1332 5.3323 -1.7644 0.3483 3.0155 -2.6562 -0.3084 1.6863
0.5215 4.4689 -6.6092 -1.6032 4.4326 -5.6350 -0.5246 -3.2218 -0.3921 3.0971 -1.9375 -1.5824 -2.6108 -0.2535 1.6590 -3.6850 -1.7367 3.3556 1.5003 -2.2476 -6.1520 0.5969 -1.3521 -5.3276 2.7856 -2.5461 -5.4059 0.3392 -1.9406 -3.9522 2.4891 -3.1463 -4.0454 -0.1790 -2.3423 1.8267 1.4503 0.5456 -1.4018 -1.6025 -2.5423 2.1514 0.8156 -1.3524 -0.0683 -0.0848 1.6541 8.4175 -1.2117 0.7953 8.7168 0.3599 1.7556 7.1545 -1.8122 0.1064 7.7321 -0.3445 1.9508 -2.4612 1.7936 1.6890 -3.5731 -0.7727 2.7913 -3.4210 1.3248 2.5795 -4.6195 0.1972 1.1076 4.6967 -0.4081 0.4294 3.7089 -1.9892 -0.5207 5.2619 0.9365 -0.8825 -1.4324 1.5850 -2.2954 -3.2998 -0.3579 4.0393 -5.6317 -0.0329 -2.3626 0.3304 0.9838 1.3668 -2.5481 1.9896 -1.7557 -2.0885 0.0931 3.1169 -4.5444 -0.2778 1.0110 6.0724 -1.3424 0.2062 6.3524 -1.5470 -0.4141 3.9956 -2.4728 -1.1958 2.7596
-2.7028 2.6620 -6.5343 -2.1962 4.5902 -5.3039 -1.9064 -0.4580 -1.5247 2.3677 -2.1612 -0.1954 0.9040 1.2670 1.9696 -0.7762 2.9041 2.8252 4.4244 -3.2499 -4.5645 3.2677 -2.2888 -4.7639 4.8836 -3.2661 -3.1202 2.1353 -2.5710 -3.7931 3.7230 -3.5524 -2.1892 -1.6494 -0.3193 0.8549 1.6356 0.2862 -2.2497 -1.5190 1.1169 1.1718 0.1961 -0.7344 -0.5693 -2.0561 -1.2945 8.3776 -2.6664 0.0126 8.2554 -1.3251 -1.7885 7.3649 -2.4947 0.7312 7.1333 0.6051 0.7812 -4.5005 0.0671 2.1735 -2.5887 -0.2355 1.4826 -5.2841 -0.8688 2.9058 -3.4208 -0.3471 -1.5483 5.0256 -0.1656 -0.8261 3.9084 -1.4874 0.9826 4.8009 0.9577 -0.9900 -1.7737 2.6467 -2.6173 -2.4372 -2.0070 3.3204 -5.5379 -1.1588 -0.4912 -0.5535 0.7414 1.1243 -3.0938 2.0359 -1.9830 -1.3685 -1.0090 2.5761 -4.7175 -1.1327 -1.0232 6.1366 -1.7007 0.2112 6.0235 -0.7423 0.4953 3.7924 -0.4439 1.5398 2.4443
0.0161 4.7709 -6.7568 -0.7206 3.1500 -8.2836 1.8483 1.0057 0.3756 0.9740 -2.6462 -1.7572 -2.4237 2.1758 3.5751 -2.8650 0.3951 1.8804 5.3163 -0.9045 -2.6892 4.6904 -2.2583 -2.4133 4.3413 0.2199 -2.3963 3.3896 -2.4123 -3.1768 3.0265 0.0182 -3.1249 0.2654 -0.0435 1.8451 -0.6962 -0.3344 -2.7715 -0.4604 1.1580 2.3039 0.1347 -0.2985 -0.5039 -1.2426 -2.7201 8.6055 -1.0417 -1.3120 8.8730 -1.5625 -3.1245 7.3656 -1.1593 -0.4157 7.8790 -1.1313 1.9641 -3.6820 -0.1706 0.2639 -5.1237 -1.1201 2.8631 -4.6830 -0.1112 1.2455 -6.1918 -2.0354 -2.5905 4.9220 -2.1440 -1.6989 3.9245 -1.6012 0.1145 5.4204 0.5387 -0.2792 -1.8923 2.4999 -1.3104 -2.8778 -0.4215 3.4965 -7.0623 0.8475 0.3098 0.5063 -0.6186 0.6216 -3.9060 1.3505 -1.5369 -2.1345 -0.5729 2.4907 -5.9767 -1.6946 -2.1644 6.2740 -1.4890 -0.8396 6.5213 -1.9230 -0.2937 4.1796 -2.0338 0.9201 2.9525
0.7037 5.5161 -1.2804 -0.4593 4.7654 -3.1722 -2.0083 -1.8871 -1.5619 1.7933 -4.1299 -0.8073 -5.1860 -0.6940 2.2497 -3.5607 -2.2300 3.3871 4.4629 -2.8110 -4.5667 4.5130 -3.8637 -3.4765 3.4323 -1.7454 -4.2455 3.1349 -4.4521 -3.2435 2.0716 -2.3597 -3.9708 -2.0722 -2.5210 0.7747 1.8769 -0.9161 -0.9970 -3.3388 -1.7727 0.8510 -0.0411 -2.2550 -0.3846 0.5237 3.4884 4.5871 0.7242 2.2453 5.3015 -0.3981 3.5590 3.6139 -0.0209 1.1681 5.0019 0.9823 1.2991 -0.2364 1.4663 0.9557 -2.5879 0.5855 2.5641 -0.4711 1.0627 2.3267 -2.8404 -2.2065 2.4631 2.2091 -2.9454 1.3876 1.8977 -1.8704 0.0786 3.6210 0.8956 -1.9814 -1.4520 2.1739 -3.4032 -2.9675 0.2663 4.5083 -2.1184 -1.4081 -2.1664 -0.5305 1.4227 0.4583 -1.3388 1.6615 -3.2738 -1.6833 0.6253 3.0924 -1.8247 -1.2114 2.3982 3.2712 -1.0343 1.2298 3.9525 -2.7856 0.1579 2.6404 -3.8318 -1.1998 2.3985
2.4488 3.9056 -6.3804 3.3033 1.9380 -7.3261 -2.7906 1.2043 0.3881 0.8638 -1.0542 -0.3457 -4.5217 -0.7555 4.6560 -4.2194 -2.8185 3.2646 2.9245 3.1700 -1.4766 3.3616 1.8221 -0.9387 1.5236 3.1021 -2.0518 2.3528 1.2928 0.0619 0.5328 2.4988 -1.0718 -3.4687 -1.0632 0.9149 -0.7300 -0.5836 -2.8662 -3.9893 -0.4963 2.1711 -1.8585 -0.5983 -0.7399 2.6668 -2.5278 5.2077 2.0580 -3.7639 4.7635 1.9469 -1.3949 5.2163 0.7735 -3.7778 4.3685 -0.4741 1.3518 -4.4624 1.3396 -0.2340 -4.1761 0.2674 2.0921 -5.3073 2.1490 0.5741 -5.0693 -0.2260 -0.1584 4.7658 -1.5029 -0.1589 4.3550 -1.4286 -2.5423 3.9510 -0.8778 0.1191 -1.5268 1.0322 1.2488 -0.5290 2.5047 2.5284 -6.4796 -2.6811 -0.0004 0.1920 0.0959 0.1623 -3.8506 0.4173 0.0231 -0.7409 1.6304 1.6898 -5.6131 0.5548 -1.3891 4.7788 -0.0250 -2.5537 4.3680 -2.1285 -1.3942 3.9390 -3.8255 -1.4583 3.5903
3.1271 1.7868 -7.1594 3.1229 3.7259 -5.8409 -2.1946 1.6656 1.2967 0.0742 -1.5591 -0.5260 -3.9420 -0.8549 4.9987 -4.8141 -2.2078 3.0837 3.5531 1.9244 -0.0347 3.5454 0.4134 -0.1538 2.2851 2.5177 -0.6172 2.3006 -0.1689 0.4829 1.0511 1.9007 0.0130 -4.0062 0.0726 1.2106 -1.2268 0.1599 -2.5611 -4.0498 0.2057 2.6789 -2.2539 0.0532 -0.3729 2.8004 -2.2762 3.2800 2.4809 -1.2418 4.2404 1.8154 -2.8894 2.6031 1.2015 -0.8880 4.4437 0.8339 -0.0188 -3.9729 -0.2763 2.1286 -3.7543 1.7650 0.5094 -4.7880 0.7094 2.6947 -4.6579 -0.6642 -3.1714 2.0851 -1.9428 -2.8123 2.2842 -1.2730 -1.1674 3.9135 -1.0725 0.4800 -1.0867 1.1193 0.4544 -0.0677 2.6841 2.5198 -6.0755 -2.7211 0.7032 0.7495 -0.2096 0.8284 -3.4154 0.0692 -0.3294 -0.5108 1.6986 1.9187 -5.1363 0.4197 -2.5191 2.8115 0.1210 -1.5372 3.7081 -2.2653 -1.7877 3.2507 -3.8657 -1.2336 3.5971
-1.3078 0.7959 -8.1029 -3.1786 0.6385 -6.7103 0.5644 -0.1313 1.3352 3.8446 1.0605 -1.1664 -0.1741 2.6141 5.1408 -2.2792 3.2488 3.9386 2.6565 -3.6782 -1.4242 3.9089 -2.8747 -1.1341 1.4119 -2.8286 -1.2529 3.9533 -1.6228 -1.9873 1.4896 -1.5591 -2.0800 1.0818 1.9085 2.4830 1.2342 2.1800 -2.1843 -0.2196 2.6004 2.5680 1.4714 1.6585 0.1592 -1.8831 -4.2888 4.6704 -0.7775 -3.8250 5.4816 -2.5868 -3.4130 3.9345 -0.4598 -2.5197 5.4983 -0.9817 1.6749 -3.2628 1.0549 1.5430 -4.5710 -1.7294 1.4011 -4.3473 0.2498 1.2283 -5.7379 -3.0082 -1.0272 3.1467 -2.6945 0.2786 3.1659 -0.8913 -0.1290 4.7147 1.4348 1.0773 -1.1639 2.7348 -0.8605 -1.8221 -1.8988 0.8549 -6.8536 0.9797 1.0211 1.2770 0.4660 1.7377 -3.3769 2.7972 0.4486 -1.3756 -1.0911 1.1711 -5.6351 -2.2550 -1.9914 3.9412 -1.2165 -1.5529 4.7076 -1.6038 0.7515 3.9889 -1.0971 2.4088 4.0371
-1.5910 4.6002 -3.7971 -1.3852 5.0882 -1.5195 -0.2572 -3.3343 -0.2107 3.6684 -2.8950 -1.2390 -2.6736 -0.8789 0.8207 -3.6265 -1.9118 2.8892 1.0891 -5.4228 -4.5217 2.3097 -5.6710 -3.6573 0.2906 -4.2385 -4.0114 3.1518 -4.4159 -3.5381 1.1600 -3.0032 -3.8703 0.0961 -2.0182 1.7946 2.3848 -0.2179 -1.7356 -1.2405 -2.4704 2.2132 1.4344 -1.7470 -0.1183 -0.4051 4.6114 4.7697 -0.5002 4.6956 3.3276 -0.7174 3.4640 5.3935 -0.8955 3.6260 2.6165 1.2205 1.8234 -0.8570 0.8507 1.1294 -3.1514 0.4247 2.8964 -1.0209 -0.0208 2.2761 -3.3234 -1.5028 1.0456 5.3044 -1.8959 -0.0266 4.5990 -1.6674 1.1898 2.5254 1.6899 -1.5519 -1.5291 2.3407 -3.3053 -3.0851 -1.0982 4.3193 -2.5350 0.3543 -2.4483 0.3744 1.4312 0.8992 -1.9604 2.6709 -2.6421 -1.9157 -0.2221 3.1306 -2.3035 -1.1535 2.2942 4.6369 -1.2373 2.3689 3.2776 -1.9786 0.0435 3.1572 -2.4990 -1.3027 2.2006
1.3965 5.5881 -3.0575 2.6931 4.9046 -1.2271 0.4112 -2.8355 1.1760 -0.1918 -3.4607 -3.0108 -4.1115 -2.4058 3.2065 -2.3652 -2.3635 4.9992 4.4289 -2.0651 -3.4808 3.4640 -2.9676 -4.2239 3.6755 -1.1292 -2.5555 2.5961 -3.7360 -3.2465 2.7799 -1.9030 -1.6059 -1.9401 -3.3950 1.2619 -0.6389 -0.5856 -2.2848 -1.7739 -3.3472 2.7271 -0.9862 -2.2819 -0.5937 -0.5765 4.1569 2.7970 -0.2541 3.6784 4.1245 -1.1959 3.3441 1.9262 -0.5694 2.4219 4.4810 0.3834 1.3801 -3.4463 0.2596 1.3726 -1.0260 0.9551 2.5991 -3.4437 0.8552 2.6949 -1.0188 -2.2305 1.0901 1.3649 -2.5645 -0.1579 1.7248 -1.6014 0.1569 3.9148 0.0119 -1.6559 -1.4313 1.9315 -2.8282 -2.3350 1.7962 4.6388 -2.1367 -0.6948 -2.8101 0.6473 0.0452 0.7312 -2.1891 0.5482 -2.7412 -2.3401 1.2040 3.2740 -2.1810 -1.5464 1.9773 2.2971 -1.2382 1.5229 3.5451 -2.2314 -0.6494 3.0428 -2.7248 -2.2130 3.5983
3.0368 4.4426 -4.8718 1.1895 5.7043 -4.1609 0.8217 -1.7858 0.8951 -0.3442 -3.1698 -3.0649 -3.1390 -3.1344 3.8221 -1.0290 -3.7353 5.0266 4.3722 -1.9593 -3.9864 3.3495 -2.8798 -4.6228 3.7027 -0.8691 -3.1714 2.3972 -3.4331 -3.5823 2.7263 -1.4482 -2.1645 -1.4696 -2.3617 1.4165 -0.9087 -0.2780 -2.6928 -0.8995 -3.0862 2.5647 -0.8271 -1.6922 -0.7402 -1.9486 3.8064 4.9825 -3.0199 3.3760 4.1089 -1.0907 2.9031 5.4841 -3.1512 2.0753 3.7987 -0.2834 2.1186 -2.2878 0.3923 1.0320 -4.3504 0.3343 3.2581 -2.6489 1.0378 2.2680 -4.7551 -0.2909 0.4953 5.6906 -0.4151 -0.8040 5.3764 -2.3453 -0.3397 4.0068 -0.0285 -1.1403 -1.8091 1.8051 -2.3488 -2.8305 1.7672 4.5478 -4.3354 -0.3389 -1.9256 0.5280 -0.2147 0.9515 -3.1522 0.4393 -2.3367 -2.6099 1.0253 3.3263 -3.9250 -1.2185 1.4865 5.1573 -2.2247 1.0798 4.3319 -1.4853 -1.2440 4.5108 -1.7245 -2.8997 4.0612
1.3539 5.6075 -3.1250 2.7950 4.8876 -1.4198 0.5715 -2.8216 1.1060 -0.3120 -3.4899 -2.9641 -3.8970 -2.5775 3.4138 -2.0652 -2.3844 5.1080 4.5253 -2.3441 -3.5242 3.5216 -3.1376 -4.3370 3.8424 -1.3050 -2.6561 2.4336 -3.7165 -3.4551 2.7446 -1.9229 -1.8110 -1.7681 -3.3813 1.3492 -0.6931 -0.5442 -2.2525 -1.5157 -3.3092 2.8009 -0.9437 -2.2535 -0.5582 -0.8864 4.2529 2.8962 -0.4684 3.7849 4.2009 -1.4791 3.4057 2.0392 -0.6710 2.5037 4.5504 0.3228 1.3909 -3.4662 0.2847 1.4077 -1.0417 0.8996 2.6066 -3.4965 0.8948 2.7245 -1.0694 -2.3703 1.0838 1.4933 -2.6045 -0.1868 1.8571 -1.5640 0.1788 4.0004 -0.0003 -1.6338 -1.4599 1.8327 -2.6707 -2.6557 1.8163 4.6454 -2.2478 -0.5688 -2.7887 0.6568 0.0235 0.7578 -2.1911 0.4677 -2.7142 -2.4122 1.2010 3.2905 -2.2505 -1.7123 2.0123 2.4051 -1.3158 1.5697 3.6322 -2.1824 -0.6642 3.1548 -2.5130 -2.2642 3.7297
1.7516 4.2872 -6.9832 3.5246 3.8145 -5.5205 0.4925 -1.3821 1.0816 -1.0740 -2.1588 -2.9111 -3.3010 -3.2519 3.8074 -1.1899 -4.3799 4.5363 3.6449 -1.3942 -4.3517 2.4441 -2.0923 -4.9585 3.2235 -0.3241 -3.3637 1.5087 -2.6099 -3.8846 2.2671 -0.8752 -2.3223 -1.7912 -2.0888 1.4527 -1.1041 0.8148 -2.1714 -1.2162 -3.1412 2.3081 -1.1725 -0.8721 -0.4581 -0.9928 2.9677 6.4547 -2.2007 2.9085 5.6585 -0.2308 1.8712 6.5974 -2.5546 1.7582 5.0605 0.7050 2.5180 -2.5920 -0.4461 1.4831 -4.4611 1.4950 3.2176 -3.4271 0.4211 2.2158 -5.3641 0.2210 -0.5833 6.1001 -0.1258 -1.7328 5.4994 -2.0970 -0.7068 4.5602 -0.3507 -0.3283 -1.5147 1.1565 -1.5415 -2.9759 2.2566 3.7403 -5.8188 -0.6685 -1.4363 0.6943 -0.2841 1.5991 -3.1305 -0.1462 -1.4584 -2.5070 1.3522 3.0467 -4.8630 -0.6005 0.6135 5.9560 -1.7356 0.5561 5.2024 -1.3318 -1.8044 4.7063 -1.8504 -3.2497 3.9034
-0.5441 -0.3263 -8.0259 -2.5808 -0.2832 -6.8746 -1.2965 1.0699 0.3619 3.5157 1.3424 -0.4173 -1.0952 3.1415 4.9592 -3.3917 2.2783 4.4657 3.3324 -2.9289 -3.0436 1.9810 -2.2436 -3.0897 4.4393 -1.9541 -2.6965 1.7116 -1.4530 -1.8228 4.1153 -1.1815 -1.4344 -0.3706 2.5679 2.0264 1.1590 2.2212 -2.1925 -1.7514 2.5972 2.5404 0.8934 1.8148 0.1864 -1.1960 -4.3928 5.2433 -2.5924 -4.0533 5.0674 -0.2566 -3.4375 5.1460 -2.9461 -2.7825 4.8143 1.3229 0.9966 -4.3780 -0.8192 1.8772 -3.6625 0.7684 0.4459 -5.4729 -1.4117 1.3213 -4.8667 0.3802 -0.9970 4.7685 0.0193 0.2790 4.5537 -2.3066 -0.3407 4.4715 1.2022 1.1917 -1.0791 2.8169 -0.5531 -1.5523 -1.3030 -0.0194 -6.9118 -0.3503 1.7299 0.7756 0.4893 1.6921 -3.4106 2.6210 0.6781 -0.9403 -0.6551 0.6078 -5.7214 -0.6236 -2.0512 4.8720 -1.9391 -1.7308 4.7153 -1.3771 0.6294 4.4166 -1.9607 2.2463 4.2089
1.8982 1.9466 -8.2734 0.0164 3.3497 -8.2436 0.9634 1.1882 0.9823 1.0751 -2.0708 -1.8174 -1.2235 1.9440 4.0083 -3.6307 1.4362 3.5799 4.3516 0.6726 -4.3121 4.0051 -0.8009 -4.2350 3.1874 1.5327 -3.8606 3.5238 -1.1695 -2.8461 2.6878 1.1196 -2.4878 -0.5433 -0.3526 2.0237 -0.9093 0.0844 -2.6822 -1.8663 0.2840 2.1702 -0.3452 -0.2017 -0.3462 -0.6996 -3.5778 8.4559 0.4823 -2.8623 8.0234 -1.8946 -3.2823 7.9185 0.3828 -1.9107 7.0801 -0.6228 2.0946 -4.1762 -0.1425 -0.1238 -5.0331 -0.2248 2.6597 -5.3313 0.2601 0.4790 -6.2906 -3.3099 -1.9261 6.2921 -3.4067 -0.9896 5.3345 -1.0362 -0.5670 5.4373 0.1945 0.1670 -1.6393 2.4298 -0.3077 -2.4557 0.7267 2.4013 -7.6978 0.1059 0.3215 0.8470 -0.5348 0.6530 -4.0060 1.2670 -0.8619 -1.9464 0.2460 1.8177 -6.4179 -2.0207 -2.2525 6.8918 -0.9068 -1.5848 6.4767 -2.2294 -0.2800 4.8857 -2.2567 0.9704 3.6915
-1.0386 3.2658 -7.5935 -1.1139 5.1357 -6.1875 -0.7615 -1.5314 0.0348 2.8524 -1.9330 -2.1827 -1.5610 -2.5980 3.1389 0.3566 -3.6277 4.3663 -0.9523 -3.8010 -4.8006 0.3546 -4.3522 -4.2660 -1.4176 -2.6018 -3.9970 1.4043 -3.2637 -4.1668 -0.3307 -1.5493 -3.8847 0.5526 -0.6663 1.8491 1.9413 0.9101 -2.2641 0.8351 -1.9609 2.5014 1.2683 -0.4880 -0.4083 -1.5625 2.7913 7.8321 -2.6071 2.6552 6.8391 -0.5318 1.9305 7.8382 -2.5413 1.6731 5.9240 1.4898 1.3707 -4.6901 0.4885 2.7877 -2.9953 0.8822 2.0611 -5.6718 -0.1814 3.5237 -4.0525 0.6625 -0.0901 6.8589 0.7356 -1.0715 5.9462 -1.3306 -0.3488 4.9263 1.1214 -0.2950 -1.8379 0.8933 -2.1526 -3.3925 -0.7471 3.9015 -6.4010 0.2617 -0.9652 0.4041 1.2555 1.7255 -3.2994 1.7303 -1.5249 -2.4837 0.0072 3.1737 -5.3384 -0.4481 0.8543 6.8553 -1.4273 0.7276 5.9144 -0.2946 -1.2075 4.9410 -0.2459 -2.4586 3.7437
0.5981 4.2532 -6.2562 -1.0254 5.2893 -4.9162 3.1543 -0.2507 0.2099 0.2260 -3.1159 -0.7489 -0.2342 -2.3459 2.2436 0.9441 -2.9647 4.3535 2.7816 -3.5732 -5.0087 1.8515 -4.4759 -4.2223 2.5280 -2.1110 -4.6967 1.9050 -4.1678 -2.7387 2.5761 -1.8493 -3.2034 1.7614 0.1211 2.1307 -0.6073 -0.4406 -1.8667 1.9256 -1.1275 2.9002 0.8483 -0.5189 0.0505 -3.9002 2.7491 5.5322 -3.8642 2.6864 4.0862 -3.1128 1.9391 6.2584 -3.0419 1.8196 3.4731 -0.5546 2.0549 -2.1248 -0.4848 0.6396 -4.0951 -0.4787 3.1655 -2.8808 -0.4333 1.8371 -4.9149 -1.3389 0.1127 6.3796 -0.5085 -0.7445 5.7633 -1.2706 -0.0092 3.5997 0.7588 -0.8447 -1.3514 1.6783 -2.7562 -2.5152 -0.2890 4.2493 -5.1962 2.0306 -0.2424 0.6994 -0.5252 0.7452 -2.7549 0.8708 -2.3507 -1.4650 -0.4147 3.0472 -4.3277 -2.2093 0.9946 5.6087 -2.1735 0.9369 4.2471 -0.4735 -0.8193 4.3198 0.5021 -1.9325 3.4278
-1.4035 3.0621 -8.0084 0.5114 1.7606 -8.3800 0.9497 2.4490 0.5752 0.8042 -1.7937 -0.3426 1.6377 0.2701 3.4210 1.3229 1.9120 5.2739 4.6615 -0.8154 -3.3053 4.1137 -2.0550 -2.6257 3.5882 0.2434 -3.4713 3.4334 -1.7040 -1.3177 2.9076 0.5524 -2.1509 -0.8033 1.6361 2.0347 -0.7771 -0.1374 -2.3138 -0.0219 2.1917 3.1512 -0.4130 0.6840 -0.0787 -3.8382 -3.6438 5.7638 -3.4577 -3.7299 4.3697 -3.2816 -2.7102 6.5528 -2.5526 -2.8737 3.8671 -0.2424 -0.3388 -4.7451 -0.9659 1.8032 -3.8642 -0.2067 0.1530 -5.9970 -0.8764 2.3509 -5.2061 -1.6874 -0.7476 6.8634 -0.7975 0.1204 6.3555 -0.9691 -0.8960 4.1789 0.2546 0.3416 -1.3127 2.4401 -0.6754 -1.5364 -0.4583 2.1422 -7.5946 0.0364 1.6598 0.7853 -0.6324 0.5192 -3.6380 1.1785 -0.8119 -0.9836 -0.5304 1.5506 -6.2305 -2.2978 -1.7710 6.0224 -1.9436 -1.8469 4.7081 -0.4252 0.0555 4.9599 0.7423 1.0929 4.2199
0.1104 5.4636 -3.9459 -0.7309 4.2562 -5.7730 2.8880 -1.3514 0.9511 0.3608 -3.4832 -1.5275 0.2268 -1.8259 5.4294 1.4054 0.3683 5.6708 4.8096 -2.9763 -2.9029 3.7682 -4.0750 -2.8123 4.3210 -1.7194 -2.2083 2.4478 -3.5939 -3.3838 2.9702 -1.2848 -2.7461 1.2547 -2.0078 2.5891 -0.5716 -0.6203 -1.5327 1.6905 -0.9394 3.5067 0.6378 -1.4649 0.3735 -5.1206 1.3679 1.9279 -5.0621 -0.0751 2.0293 -4.1056 2.1126 2.3949 -3.9900 -0.6666 2.5824 -0.0494 0.6280 -3.6446 -0.8033 1.8450 -1.6860 0.0160 1.7623 -4.3644 -0.7684 3.0674 -2.4705 -1.8246 2.2842 3.5087 -0.7488 1.6962 4.0548 -1.6952 -0.4937 3.6881 0.7570 -1.1567 -1.0356 2.0194 -2.3817 -2.7153 -0.3346 4.2928 -4.5302 1.7119 -1.5554 1.2317 -0.4390 0.6762 -2.2444 1.0240 -2.4698 -1.7484 -0.3592 3.0250 -3.7513 -2.9345 1.4868 3.0000 -2.8742 0.1274 3.0891 -0.6810 0.2563 4.1554 0.6735 -0.5747 4.8403
1.4859 4.2792 -5.8298 -0.2241 5.2772 -4.5690 0.1183 0.0987 0.7957 0.3841 -3.6033 -2.4420 -0.0330 -2.9140 4.8041 1.7973 -1.3304 5.4458 4.1491 -2.0663 -5.3789 3.0954 -3.1486 -5.5002 3.6626 -0.9142 -4.5217 2.5976 -3.5864 -4.1376 3.1545 -1.4010 -3.1780 0.1455 -1.9831 1.9877 -0.4818 -0.7541 -2.1439 1.0982 -1.4749 2.9934 0.7067 -1.8675 -0.3033 -4.8588 2.3129 5.1271 -5.2198 0.9816 4.6877 -3.5724 2.6104 5.3741 -4.2681 0.0472 4.5268 -0.1737 1.7396 -2.1095 -0.1432 0.5579 -4.2279 0.0590 2.9138 -2.7239 0.0794 1.8274 -4.8983 -1.1233 1.9137 5.4645 -0.1719 0.9799 5.3015 -1.8152 -0.6467 4.6199 0.8190 -1.3685 -1.6572 2.1602 -2.4397 -3.3700 0.4824 4.2258 -4.8810 0.3330 -1.1082 0.7839 -0.2426 0.5123 -2.8866 1.0998 -2.6026 -2.4893 0.1927 2.9525 -4.1697 -2.5255 1.6073 5.2037 -2.8650 0.3537 4.7890 -0.5267 -0.3541 4.8723 0.6241 -1.6277 4.6406
2.9074 3.7706 -4.8077 3.0678 5.0393 -2.8395 0.8393 -3.6458 0.5087 -1.4540 -2.0900 -2.6691 -2.8824 -3.3508 4.2225 -0.7516 -2.7644 5.3969 2.9680 -1.2007 -4.7252 1.5605 -1.4150 -5.2456 2.9555 -0.7383 -3.2812 0.7842 -2.3537 -4.3441 2.1483 -1.6798 -2.4067 -1.2595 -3.7917 1.6699 -0.7065 0.1541 -0.7530 -0.6411 -3.6095 2.9974 -0.8567 -2.1284 0.0350 -1.3783 3.9114 3.0664 -0.5651 3.5629 4.2123 -2.0197 2.9490 2.3835 -0.4373 2.2767 4.5781 1.2879 1.6961 -0.7834 -0.2486 1.6678 -2.6612 2.0873 2.5775 -1.4130 0.5943 2.6420 -3.3305 -2.6446 0.4988 2.0867 -2.5590 -0.7799 2.4864 -1.0172 -0.1847 4.2403 -0.1229 -1.2456 -0.8447 0.8302 -1.8819 -2.9778 2.6003 4.0036 -3.4803 -0.2830 -3.1902 0.6993 0.0995 1.1905 -1.4518 -0.3373 -1.8055 -2.2375 1.7273 3.0570 -2.7367 -1.9130 1.5496 2.7839 -1.1276 1.2176 3.8477 -1.6996 -1.1439 3.5904 -1.5527 -2.7644 4.1833
-1.3980 2.9124 -6.4107 -0.9088 4.5717 -4.8305 3.3146 -0.0906 1.2358 1.2668 -3.2858 -0.5926 0.8639 -0.2323 5.8821 0.9713 2.2219 5.4052 3.9053 -2.0292 -4.6092 3.2062 -3.2855 -4.1293 3.3228 -0.7871 -3.9630 3.1980 -3.3597 -2.6160 3.2873 -0.9066 -2.4500 1.9454 -0.7590 3.0911 -0.2283 -0.7241 -1.0970 1.8922 0.5941 3.6766 1.1734 -0.9168 0.8597 -5.1721 -0.8307 2.1341 -4.4937 -2.0021 2.6467 -4.6054 0.3804 2.2600 -3.2982 -1.8754 3.2463 -0.0355 0.0647 -3.4722 -0.9116 1.5608 -1.7769 -0.2091 0.9938 -4.4292 -1.1380 2.5517 -2.8148 -2.6757 1.8435 3.0494 -1.4776 1.9700 3.6427 -1.3658 -0.4059 4.0343 1.1910 -0.8776 -0.5863 2.6381 -2.1454 -2.0645 -1.0419 3.3100 -5.1356 2.2418 -0.5277 1.6379 -0.3651 0.3719 -2.0898 1.7071 -2.2280 -1.0427 -0.7855 2.2831 -4.0857 -3.3069 0.5360 2.9078 -2.6663 -0.5664 3.3900 -0.7958 0.8061 4.1626 0.7538 0.8639 4.9336
1.7353 3.5379 -5.4491 1.4623 5.1730 -3.7873 2.0234 -2.8010 1.4713 -0.5093 -2.7845 -1.9014 -1.8324 -2.8948 5.0101 0.0113 -1.6197 6.1199 3.5099 -1.0618 -4.2176 2.2561 -1.8072 -4.6300 3.3004 -0.3186 -2.9124 1.7838 -2.7225 -3.5185 2.7823 -1.2399 -1.8230 0.0203 -3.3998 2.6572 -0.6128 -0.0815 -0.5570 0.4898 -2.7887 3.9139 -0.0439 -2.0322 0.7345 -3.3104 2.7665 0.8910 -3.9698 1.4978 0.6653 -2.3358 2.8591 1.8101 -3.6074 0.4164 1.3759 0.7502 1.9893 -0.9921 -0.5929 1.0271 -2.7703 1.2435 2.9209 -1.8286 -0.0894 2.0506 -3.6667 -0.8587 1.7788 3.5769 -0.4783 0.6964 4.2732 -2.1242 -0.6673 3.1526 0.4070 -1.1861 -0.3477 1.6207 -1.9702 -2.2941 1.3542 3.9339 -4.1808 0.8060 -2.7087 1.5805 -0.1657 0.9791 -1.4952 0.4469 -2.0847 -1.5687 0.8136 2.9397 -3.2167 -1.9248 1.6934 2.5858 -2.5463 0.4978 2.3769 -1.1347 -0.5733 4.0593 -0.6802 -2.0151 4.9029
-0.0811 1.8083 -7.6222 -0.2599 4.0109 -6.8370 3.2037 -0.1969 0.9373 -0.1583 -2.1991 -1.1783 1.5477 -1.9079 5.5241 2.0041 0.4848 6.0913 3.0656 -1.8293 -4.9787 1.8407 -2.6773 -4.7001 3.0235 -0.5281 -4.2011 1.6455 -2.8856 -3.2113 2.8003 -0.7739 -2.7203 1.7849 -1.2110 2.5900 -0.3409 0.8069 -1.1661 2.1038 -0.2335 3.6490 0.9061 -0.2811 0.5938 -5.2625 -0.2793 4.0418 -4.7401 -1.5947 3.7372 -4.4380 0.6784 4.4956 -3.4317 -1.8529 3.9021 0.3108 2.5604 -2.8511 -0.9992 0.6432 -3.5527 0.3669 3.0209 -4.1146 -0.9573 1.1462 -4.9126 -2.1112 1.4467 5.1764 -0.8026 1.1961 5.3363 -1.0899 -1.0755 4.5712 0.8722 -0.0464 -0.8347 1.6312 -1.6106 -2.5269 -0.2079 2.7291 -6.5987 2.0711 -0.4988 1.2980 -0.3599 1.3022 -2.5685 0.7356 -1.4111 -1.4861 -0.2790 2.2756 -5.1828 -3.0151 0.4142 4.6837 -2.5189 -0.8219 4.3904 -0.2696 -0.1109 5.0262 1.4094 -0.4980 5.1992
-0.9360 1.6060 -8.6065 0.4175 3.3241 -7.7578 2.3172 1.1564 0.7296 0.9014 -2.0938 -1.8460 1.9471 0.3059 5.1391 0.2086 2.0783 5.4529 3.9917 0.0236 -4.9920 3.3980 -1.3574 -4.7988 3.1538 1.0660 -4.2782 3.2581 -1.6764 -3.3232 2.9935 0.7241 -2.8084 0.9355 -0.0557 2.2717 -0.7545 0.3727 -2.1343 0.5694 1.0971 3.1193 0.4143 0.0556 -0.0363 -4.4937 -2.9964 7.0273 -4.7151 -1.6059 7.3643 -3.3979 -3.3520 6.3367 -3.8216 -0.6750 6.9905 -0.7656 2.2643 -3.7973 -0.5760 -0.0246 -4.5778 -0.6983 2.7305 -5.0587 -0.4531 0.4762 -5.9334 -1.2248 -2.7204 5.1667 -0.3287 -1.7899 4.8011 -1.6354 -0.0482 5.8372 0.6016 0.2673 -1.4566 2.5127 -0.6360 -2.6467 -0.3296 2.2732 -7.5586 1.3076 0.4879 0.9226 -0.6771 0.8348 -3.5468 1.3424 -0.9521 -1.9749 -0.5165 1.8000 -6.1606 -2.4188 -2.3528 5.9197 -2.6244 -1.0437 6.2409 -0.5348 -0.4015 5.1504 0.6313 0.8377 4.8229
-1.8112 4.6693 -2.0668 -3.0367 2.9912 -3.1479 -0.1447 -1.1032 0.5931 4.0560 -2.9766 -0.9286 0.8663 -0.5639 5.2982 1.4096 1.7536 4.5250 1.9921 -4.9281 -5.0016 3.0094 -5.3991 -3.9808 1.0881 -3.8516 -4.4322 3.7782 -4.2302 -3.3995 1.8907 -2.7179 -3.8241 1.2986 -1.5491 2.4505 2.4512 -0.2878 -1.7949 1.6766 -0.1911 2.8922 2.0942 -1.6116 0.2179 -5.1810 2.5825 2.0193 -4.1672 3.5898 1.7871 -4.8410 1.4054 2.5693 -2.8915 3.3498 2.1334 1.0605 1.6463 -1.0315 0.4670 0.5094 -3.0889 0.0200 2.4891 -1.1584 -0.6319 1.4466 -3.2511 -3.0734 -0.1511 3.5379 -1.8024 -0.3859 3.9001 -1.1281 1.8055 3.1461 2.0617 -1.6425 -1.2285 2.8527 -3.2477 -2.8776 -1.9523 3.3750 -2.5316 0.9788 -1.3876 0.9942 1.2759 0.5988 -2.0170 3.1087 -2.6603 -1.6493 -0.8547 2.3878 -2.3150 -3.4586 1.1256 2.9461 -2.5053 2.0787 2.7406 -0.7967 0.6366 3.7231 0.8403 0.4444 4.2511

>  <OB_ATOM_TYPES> (1ppcA1)
N.pl3 N.pl3 O.2 O.2 O.2 O.2 C.3 C.3 C.3 C.3 C.3 C.3 C.3 N.3 N.am C.ar C.ar C.ar C.ar C.ar C.ar C.ar C.ar C.ar C.ar C.ar C.3 N.am C.2 C.2 C.ar C.2 C.ar C.ar C.ar C.ar S.O2

>  <ENSEMBLE_RMSD> (1ppcA1)
2.119 2.129 2.204 2.296 2.526 2.526 2.593 2.595 2.598 2.625 2.630 2.702 2.724 2.826 2.835 2.837 2.848 2.957 2.962 3.093 3.123 3.173 3.182 3.192 3.207 3.222 3.229 3.235 3.251 3.398 3.442 3.521 3.594 3.609 3.612 3.666 3.690 3.697 3.736 3.784 3.906 3.948 3.988 4.056 4.097 4.141 4.198 4.299 4.385 4.482

$$$$
