
 OpenBabel03071213D

 55 59  0  0  0  0  0  0  0  0999 V2000
   -0.6720   43.1510   14.3080 C   0  0  0  0  0
   -0.9520   47.9890   19.2210 O   0  0  0  0  0
   -8.6980   45.7520   20.9370 O   0  0  0  0  0
   -4.4240   43.2090   10.0430 O   0  0  0  0  0
   -4.4360   43.8180   22.1390 O   0  0  0  0  0
   -2.3840   43.0410    5.6870 O   0  0  0  0  0
   -1.0960   45.4900    5.8630 O   0  0  0  0  0
    3.1140   44.7660   16.7790 O   0  0  0  0  0
   -9.2470   40.3370   18.5590 O   0  0  0  0  0
  -10.0910   43.0080   18.8680 O   0  0  0  0  0
    0.3800   47.8830   13.3550 O   0  0  0  0  0
   -6.5080   39.9780   19.1370 O   0  0  0  0  0
   -1.0150   47.6070   10.9840 O   0  0  0  0  0
   -1.6970   41.6770   17.1770 O   0  0  0  0  0
   -0.8810   46.6760    8.3050 O   0  0  0  0  0
    1.5420   43.4180   18.4160 O   0  0  0  0  0
   -4.3490   40.8450   17.7320 O   0  0  0  0  0
   -1.6590   47.2330   18.2330 C   0  0  0  0  0
   -8.9970   44.4170   21.2840 C   0  0  0  0  0
   -3.1180   42.6780   10.2650 C   0  0  0  0  0
   -4.4500   44.6300   20.9810 C   0  0  0  0  0
   -0.0080   46.8420   16.4430 C   0  0  0  0  0
    1.1260   45.3300   14.7210 N   0  0  0  0  0
   -1.8110   44.4050   12.6750 O   0  0  0  0  0
   -2.6850   42.9630    7.9420 O   0  0  0  0  0
   -7.1860   42.9170   21.1020 O   0  0  0  0  0
   -2.4280   43.7140   20.0910 O   0  0  0  0  0
   -1.5160   44.1700   17.9860 O   0  0  0  0  0
   -1.1020   44.9690   10.4940 O   0  0  0  0  0
   -5.8350   42.6370   19.2750 O   0  0  0  0  0
   -0.5370   44.2380   13.3000 C   0  0  0  0  0
   -0.6410   46.3460   17.5390 C   0  0  0  0  0
   -1.8550   43.4380    6.9130 C   0  0  0  0  0
    1.2800   46.1780   15.9140 C   0  0  0  0  0
   -1.7700   44.9480    6.9870 C   0  0  0  0  0
    1.8920   45.3700   17.0860 C   0  0  0  0  0
   -8.3870   41.3930   19.0000 C   0  0  0  0  0
   -9.1730   42.4470   19.7670 C   0  0  0  0  0
    0.0420   46.6070   12.8510 C   0  0  0  0  0
   -7.2950   40.8830   19.8840 C   0  0  0  0  0
   -1.2850   46.7440   12.0960 C   0  0  0  0  0
   -2.3270   41.9370   18.4130 C   0  0  0  0  0
   -1.0550   45.2740    8.2450 C   0  0  0  0  0
    0.9000   44.2990   17.5130 C   0  0  0  0  0
   -3.8250   42.0960   18.1490 C   0  0  0  0  0
   -8.2210   43.5230   20.3360 C   0  0  0  0  0
   -2.1290   43.2010    9.2180 C   0  0  0  0  0
   -3.8220   43.9250   19.7940 C   0  0  0  0  0
   -0.1160   45.5480   13.9590 C   0  0  0  0  0
   -1.8510   45.3880   11.6290 C   0  0  0  0  0
   -6.4470   42.0170   20.3790 C   0  0  0  0  0
   -1.6780   43.2060   19.0060 C   0  0  0  0  0
   -0.3440   44.9730   18.1520 C   0  0  0  0  0
   -1.8850   44.7240    9.3540 C   0  0  0  0  0
   -4.4510   42.5740   19.4330 C   0  0  0  0  0
  1 31  1  0  0  0
  2 18  1  0  0  0
  3 19  1  0  0  0
  4 20  1  0  0  0
  5 21  1  0  0  0
  6 33  1  0  0  0
  7 35  1  0  0  0
  8 36  1  0  0  0
  9 37  1  0  0  0
 10 38  1  0  0  0
 11 39  1  0  0  0
 12 40  1  0  0  0
 13 41  1  0  0  0
 14 42  1  0  0  0
 15 43  1  0  0  0
 16 44  1  0  0  0
 17 45  1  0  0  0
 18 32  1  0  0  0
 19 46  1  0  0  0
 20 47  1  0  0  0
 21 48  1  0  0  0
 22 32  1  0  0  0
 22 34  1  0  0  0
 23 34  1  0  0  0
 23 49  1  0  0  0
 24 31  1  0  0  0
 24 50  1  0  0  0
 25 33  1  0  0  0
 25 47  1  0  0  0
 26 46  1  0  0  0
 26 51  1  0  0  0
 27 48  1  0  0  0
 27 52  1  0  0  0
 28 52  1  0  0  0
 28 53  1  0  0  0
 29 50  1  0  0  0
 29 54  1  0  0  0
 30 51  1  0  0  0
 30 55  1  0  0  0
 31 49  1  0  0  0
 32 53  1  0  0  0
 33 35  1  0  0  0
 34 36  1  0  0  0
 35 43  1  0  0  0
 36 44  1  0  0  0
 37 38  1  0  0  0
 37 40  1  0  0  0
 38 46  1  0  0  0
 39 41  1  0  0  0
 39 49  1  0  0  0
 40 51  1  0  0  0
 41 50  1  0  0  0
 42 45  1  0  0  0
 42 52  1  0  0  0
 43 54  1  0  0  0
 44 53  1  0  0  0
 45 55  1  0  0  0
 47 54  1  0  0  0
 48 55  1  0  0  0
M  END
>  <MOLID> (1ppiA1)
1ppiA1

>  <SMILES_CANONICAL> (1ppiA1)
OC[C@H]1C[C@H](N[C@@H]2[C@@H](C)O[C@@H]([C@@H]([C@H]2O)O)O[C@@H]2[C@@H](CO)O[C@H]([C@@H]([C@H]2O)O)O)[C@@H]([C@H]([C@@H]1O[C@H]1O[C@H](CO)[C@H]([C@@H]([C@H]1O)O)O[C@H]1O[C@H](CO)[C@H]([C@@H]([C@H]1O)O)O)O)O	

>  <FINGERPRINT> (1ppiA1)
0000000000000000000000000100000000000001000000000000000000000000000000000001000000000000000000001000000010000001000001010000000010000000001110000000000011000000000000000000000000000000000000000000000000000000001110000000000000101000000000000000000001000000000000000010000000100000000000000000000100000000000000001010000000000000001000000000000000000000010000000000000110000000000000000000000000000000000000000000001000000011100000000000000000000000000000000010100000010000000010000000000000101011100100000000100000010000100000000000000001000000000000000000000000000000000000000001001111000000101000000000000000000000000000000000001000000001000000000001000000000000001000000001000000000000000000000001000000010111000000000000000010000000000010000001000000000000000100000001000000000000000001000000000100000000000000000000000000000000000000000000000000000010000000000011010000000000000000000010000100000000000000000000001000000010000000000000010000000000000000000000000010100010000000000000000000000000000000000010101000000000

>  <MACCS166> (1ppiA1)
000000000000000000000000000000000000000000000000000011001000000000000001000000000100000011100010110000010001101000000001001001100011100011111110110011111011111110111000

>  <OB_MW> (1ppiA1)
809.316

>  <OB_logP> (1ppiA1)
-10.2695

>  <OB_PSA> (1ppiA1)
400.32

>  <OB_MR> (1ppiA1)
169.546

>  <OB_ATOMIC_CHARGES> (1ppiA1)
0.0337210795 -0.220337559 -0.2176082102 -0.217609865 -0.2176098701 -0.1869438235 -0.2147589268 -0.2188251395 -0.2173919746 -0.2176051559 -0.2186360365 -0.2148633375 -0.214905421 -0.2148650316 -0.2175099144 -0.2177429634 -0.2175113796 0.1845794526 0.2142063469 0.2140908325 0.2140896769 0.0251950856 -0.213057921 -0.3295458843 -0.3237350756 -0.3256183446 -0.32573571 -0.3282733805 -0.3257350382 -0.3257336303 0.1363968243 0.0643839506 0.302348814 0.106012203 0.2433301877 0.200349043 0.219826804 0.2144172081 0.2054140339 0.240558422 0.2393862085 0.2404409384 0.2167674803 0.2104969684 0.2166639426 0.1834834364 0.1803999991 0.1803161899 0.132918793 0.2693847756 0.2695351732 0.2694583381 0.1531629114 0.1804135353 0.1804109382

>  <MCT_HBD> (1ppiA1)
17

>  <MCT_HBA> (1ppiA1)
24

>  <ENSEMBLE_TOTAL> (1ppiA1)
50

>  <ENSEMBLE_COORDS> (1ppiA1)
0.3084 2.9197 -1.5252 2.5504 4.8566 4.2494 -4.6632 1.0286 5.0369 -1.9866 1.1496 -4.3460 -1.2316 -0.7853 7.1141 -1.1444 -0.6556 -9.4672 1.2635 -1.9721 -8.8668 4.8211 0.3614 1.1312 -5.1039 -3.5309 1.3361 -5.4701 -0.7833 1.9999 4.7854 0.9247 -1.9064 -3.2030 -4.8938 2.9758 4.2314 0.4512 -4.6330 -0.9908 -0.6783 1.2937 2.9091 -0.6629 -6.9446 3.7885 0.3497 3.8457 -0.8361 -3.3218 2.1541 3.1624 3.7589 3.5925 -5.4664 -0.1241 4.8330 -1.1304 1.6377 -5.3650 -0.5075 -0.9529 5.9056 2.4460 3.2710 1.2560 2.4331 1.3414 -0.2334 1.3589 2.4689 -3.5900 -0.9804 0.5305 -7.4530 -4.3342 -2.1823 5.1901 -0.9936 0.4040 3.9594 0.6992 1.2007 2.5188 1.4335 0.3764 -4.7058 -2.1127 -3.0124 4.7050 1.2166 1.9626 -2.2641 2.1204 3.0853 2.7296 -0.6114 -0.6545 -8.1510 3.2757 2.1605 0.6298 0.9013 -0.7587 -8.2269 3.9788 1.3459 1.6972 -4.4071 -2.8893 2.3919 -5.2735 -1.7933 2.9771 3.4571 0.9077 -2.4100 -4.0777 -3.8989 3.4668 3.4964 1.3694 -3.8486 -0.0347 -1.0625 2.2726 1.4987 -0.7362 -6.8359 3.0357 0.7151 2.6990 -0.5306 -2.2677 3.0475 -4.6059 -1.1921 4.2016 -0.5460 0.4536 -6.0976 -1.4482 -0.6875 4.7513 2.5798 1.8438 -1.5946 2.1111 1.5912 -4.4237 -3.5130 -3.2311 4.7011 0.1972 0.0851 3.2433 1.9059 1.6374 3.1404 0.9746 0.4497 -6.0508 -1.7371 -1.9110 3.8933
-0.1123 1.9704 -1.4318 -0.7174 3.1688 2.8568 -3.5288 0.9398 6.8456 4.5038 -0.7276 -6.2581 -0.9633 -2.9411 6.9651 0.1409 -2.8456 -8.2009 -1.3359 -0.5050 -8.7070 4.9462 0.3717 0.8812 -5.7388 -1.1347 1.7339 -5.0255 1.0411 3.4151 4.4655 3.4022 -2.2082 -4.5116 -3.6234 2.4098 4.1807 2.5908 -4.9423 0.2011 -1.9150 1.2402 -1.0055 1.5751 -6.7756 3.3297 -0.6321 2.9458 -1.5474 -3.7075 2.0798 0.6880 3.3409 2.9221 -4.7124 0.4545 6.2340 3.2731 -0.5419 -5.5789 -0.2458 -2.3339 5.9039 2.4902 3.1096 1.2610 2.7389 1.4900 -0.5933 0.8327 2.2195 -3.5994 1.5913 -1.6209 -6.8364 -4.4529 -1.8225 5.6299 -0.5330 -0.4247 4.4517 0.4691 0.3193 2.4875 1.6374 1.9056 -5.8152 -2.8066 -3.2600 4.5976 1.1099 1.7446 -2.2908 1.3459 2.3943 1.9435 0.6708 -1.5584 -7.9199 3.4150 2.1854 0.4955 -0.4733 -0.6159 -7.5867 3.9447 1.1687 1.4929 -4.8320 -1.2672 2.8164 -5.1982 -0.2797 3.9030 3.5140 2.4515 -2.6581 -4.9139 -2.6699 3.3697 3.0852 2.8019 -4.0679 0.1240 -2.0385 2.6404 0.0596 0.7560 -7.2254 2.8165 0.2901 1.9977 -0.9369 -2.9873 3.1278 -4.3217 -0.4955 5.1245 2.1859 -0.3440 -6.6093 -1.2038 -1.5127 5.0641 2.3528 2.3869 -1.6761 1.9355 1.8894 -4.4313 -4.1468 -2.8139 4.6658 0.3844 -0.7524 3.4152 1.6741 1.0743 2.6309 1.1086 0.6261 -6.1398 -1.9518 -2.2973 4.0045
1.1256 -1.7427 -1.3937 1.0534 3.9624 2.9856 -5.6962 1.2329 3.4294 0.2879 -2.7665 -5.2049 -2.0724 1.7869 2.2050 -2.2836 0.3212 -8.9174 -0.4238 2.4215 -8.8763 4.1781 -1.5584 1.2110 -4.6540 -3.7831 0.7552 -5.9727 -1.2802 1.1060 4.6014 1.7093 -2.0577 -2.1439 -3.9648 2.1139 2.9830 2.7545 -4.1408 2.1669 -1.4541 5.8038 0.7252 2.9672 -6.3159 4.5270 0.1258 3.4502 -0.0581 -2.8925 4.7663 2.3092 3.3355 3.1867 -5.8495 -0.1336 3.7758 -0.4893 -1.5957 -5.0209 -2.0853 1.4212 3.5749 3.4198 1.9720 1.4287 2.4486 0.7083 -0.3658 0.7427 0.2582 -2.6420 -1.3849 -0.5018 -6.9189 -3.9826 -1.5457 4.1589 -0.1830 1.2714 4.9816 2.2058 1.0947 4.7127 1.4484 0.5817 -4.8819 -1.8415 -1.4056 3.1084 1.7523 -0.6744 -2.2572 2.3019 2.0219 2.4488 -1.1305 0.2672 -8.0909 3.4816 0.6617 0.6599 -0.7322 1.6810 -7.7061 3.2285 -0.5574 1.5324 -4.1283 -2.7340 1.5519 -5.2694 -1.9376 2.1480 3.5038 0.9932 -2.5909 -3.2783 -3.3158 2.6599 2.4448 1.9376 -3.1179 0.9083 -0.8573 5.5653 0.4820 1.6570 -6.8017 3.2369 -0.2810 3.0204 0.1853 -1.5385 4.4252 -4.7287 -0.9101 3.1245 -0.1903 -0.6455 -6.1558 -0.8242 0.6436 3.8719 2.9201 0.0268 -1.5708 1.2184 1.1867 -3.6158 -2.8497 -2.2504 3.6545 1.0298 0.6364 5.3480 2.2101 0.7901 3.3321 0.2520 0.7138 -5.6373 -1.1263 -0.8148 4.1840
4.5864 -1.2704 -2.1517 0.4980 4.1782 1.9441 -4.3751 -2.1616 7.9072 4.1775 -1.4474 -7.0910 -2.0322 -0.1905 6.4007 -0.9376 -1.5339 -8.9299 -1.6806 0.9450 -7.8413 5.7860 0.8331 2.0705 -7.7257 -0.8442 3.4175 -7.0618 -1.0244 6.1869 3.8527 3.6090 -2.0826 -5.4674 -0.9450 1.6783 1.7046 3.1968 -3.8772 0.2769 -0.5533 0.4071 -0.5500 1.5327 -5.2921 3.7472 1.4293 3.7197 -2.3984 -1.3468 0.8565 1.5970 3.4845 2.5129 -4.9695 -2.9270 6.8719 2.9946 -1.6903 -6.3468 -1.4682 -1.2661 5.6683 3.4214 2.8781 0.9346 3.5216 1.0567 -0.6505 2.5956 -0.2698 -3.0062 0.9334 -1.5795 -7.5216 -4.2990 -2.8171 4.5989 0.2450 -1.1777 4.0291 0.9734 0.7388 2.8480 2.2532 0.8120 -5.0996 -3.3735 -0.9132 3.5126 3.9845 -0.0350 -2.7788 2.0762 2.4628 1.5113 -0.0165 -0.7512 -8.1857 4.2557 1.7098 0.4255 -0.7804 0.0785 -7.1696 4.4901 0.6874 1.5272 -6.3968 -0.9921 3.8900 -6.4078 -1.7813 5.1814 3.6570 2.3729 -2.7385 -5.5727 -1.7257 2.8551 2.1962 2.1507 -3.0609 -0.1611 -1.0918 1.6392 0.1763 0.9059 -6.3363 3.4189 0.6099 2.6095 -1.6136 -0.7508 1.8770 -4.9861 -2.0895 5.6146 1.9150 -0.7758 -6.8743 -1.0940 -0.7598 4.2951 4.2139 1.2123 -1.9269 1.9639 0.7959 -3.7099 -4.1926 -2.0706 3.3881 0.7318 -0.6612 2.7928 2.0840 1.0351 2.0279 1.2672 0.0236 -5.7555 -2.0349 -1.2959 3.2271
-0.1389 3.1657 -1.2296 1.6843 4.8816 3.7369 -4.1458 1.2639 4.4854 -2.7800 1.1317 -4.4839 -1.2772 -2.0628 7.0544 -1.4879 -1.8387 -8.4339 1.1590 -2.5352 -7.8349 4.8305 0.0166 1.0103 -4.1515 -2.7966 0.1758 -4.2721 -0.0812 1.0240 4.5282 1.9081 -1.9614 -3.1020 -4.5856 2.1522 3.8908 1.4144 -4.6626 -0.5832 -0.9555 1.4114 2.6746 -0.5212 -6.4943 4.5653 1.2250 3.4937 0.3860 -3.4017 3.8749 2.5147 3.7391 3.8747 -5.0287 0.4093 3.7760 -1.5688 1.4951 -5.1258 -0.3999 -1.6003 6.0406 3.0330 3.0042 1.5702 2.1152 1.5555 -0.1838 0.7911 2.8198 -3.3783 -1.3769 -0.1205 -6.8453 -4.5252 -1.8770 4.2051 -0.5566 0.0025 4.2295 1.0507 0.7063 2.6888 1.1647 0.6855 -4.3418 -2.4611 -3.1193 4.4176 0.8101 2.3173 -2.0459 2.1553 2.7594 2.7847 -0.8632 -1.3871 -7.2425 3.2715 1.8136 0.6619 0.6308 -1.2685 -7.4744 3.5736 0.5273 1.4030 -3.7539 -2.3719 1.4686 -4.5742 -1.1692 1.8834 3.1991 1.6253 -2.3780 -3.9547 -3.4991 2.4558 3.0385 2.1349 -3.7929 0.2427 -1.4938 2.4391 1.3133 -0.7930 -6.2102 3.4376 0.5905 2.9119 -0.5007 -2.6559 3.0588 -4.2456 -0.7971 3.3173 -0.8610 0.2337 -5.5646 -1.2211 -1.0691 4.8863 2.2105 2.3028 -1.4367 1.5994 2.0386 -4.2567 -3.7792 -3.0459 3.8936 0.5773 -0.3972 3.4557 2.1666 1.3315 3.3121 0.6460 0.4495 -5.6473 -1.6509 -2.1053 3.8709
1.5517 3.5155 -2.3949 0.9869 4.4273 4.0065 -4.7705 1.1897 5.7587 -0.6064 3.2520 -5.8370 -1.1177 -0.0842 7.4741 0.0113 0.6389 -10.5637 0.8260 -1.8009 -9.4326 4.6871 0.6332 0.6987 -5.3285 -3.5541 2.2853 -5.6715 -0.7675 2.7950 3.9343 -0.7591 -1.7613 -3.3763 -4.8036 3.9681 3.8078 -1.1073 -4.5555 -1.4188 -1.2930 1.8080 2.4751 -1.5739 -7.1275 3.7385 0.1124 3.3417 0.2407 -3.0050 4.5244 0.5001 3.4567 3.0921 -5.6149 0.0652 5.5725 0.6018 2.9269 -6.5050 -0.5170 -0.6740 6.3321 1.7167 2.9184 0.9970 2.1141 1.1821 -0.6376 2.5727 2.3143 -4.1504 0.4396 1.7090 -8.5265 -4.5418 -1.9994 6.0500 -1.0473 0.2803 4.1714 0.4983 0.6406 2.4336 1.6195 0.4644 -5.2928 -2.3225 -2.8412 5.6455 1.8822 2.1344 -2.9114 1.6824 2.7249 2.5043 0.1174 0.4741 -9.1577 2.7799 2.0828 0.3005 1.1931 -0.5555 -8.8621 3.6565 1.3725 1.3182 -4.6205 -2.8561 3.2952 -5.4716 -1.7219 3.8254 3.0209 -0.0231 -2.5598 -4.2710 -3.8062 4.4180 3.6275 0.1516 -3.9355 -0.3678 -1.5592 2.7290 1.3675 -0.7253 -7.3683 2.8727 0.5126 2.2893 -0.8620 -2.5733 3.7406 -4.7838 -1.0602 5.0060 0.4487 1.5524 -7.1100 -1.5040 -0.5981 5.1914 2.7533 1.3409 -1.9408 2.8117 1.0778 -4.8171 -3.7190 -3.0754 5.6261 0.0411 -0.2678 3.4277 1.6932 1.2549 2.9023 1.5849 0.6224 -6.7064 -1.9223 -1.9431 4.6250
3.0965 -1.7674 -2.0540 1.2800 4.3716 2.2017 -3.4490 -5.1191 5.0927 3.2945 -2.1677 -5.7014 -1.5474 -0.1634 6.8570 -0.6386 -0.9104 -9.5003 -0.4162 1.8473 -9.0318 5.7528 0.0492 1.7701 -7.9916 -1.2609 4.1464 -7.2140 -3.9644 4.4608 4.5906 2.9494 -2.2513 -5.7784 0.3665 5.6044 2.4622 3.4231 -4.0481 -0.4324 0.6366 0.6520 0.1462 2.5752 -6.3200 4.0228 0.9077 3.6167 -3.0909 0.1974 1.5741 2.2816 3.4714 2.6485 -4.1794 -4.3248 4.1710 1.8923 -1.9541 -5.6801 -1.1623 -1.1344 5.8957 3.8017 2.5475 0.9000 3.2939 0.8314 -0.7079 1.7783 -0.0279 -3.0214 0.5242 -1.3281 -7.5106 -4.1392 -2.1721 5.2394 0.1126 -1.0392 3.8877 1.1142 0.8984 2.9728 2.2005 0.9041 -5.1633 -3.3739 -0.0849 4.3897 3.1225 -0.4378 -2.7703 2.4546 2.4106 1.5926 0.2941 -0.3964 -8.5626 4.2848 1.2434 0.2786 -0.2393 0.9035 -7.9872 4.4119 0.1564 1.3354 -6.7700 -1.6131 4.7697 -6.2630 -2.9380 4.2472 3.8862 1.8883 -2.8637 -5.7504 -0.5230 4.4973 2.4645 2.2929 -3.1951 -0.7403 -0.1853 1.7616 0.7376 1.4662 -6.9764 3.4363 0.2510 2.5049 -1.9871 0.3123 2.4570 -4.9646 -3.2975 4.9509 1.5671 -0.8557 -6.6645 -0.9883 -0.4390 4.5673 3.9126 0.6263 -2.0112 1.7184 1.1374 -3.8451 -4.3563 -1.1088 4.3185 0.4481 -0.3260 2.7019 2.1899 0.9942 2.0662 1.1246 0.4149 -5.9539 -2.2252 -0.5346 3.6905
-0.2434 2.7166 -2.7447 -0.8051 3.2466 2.8058 -3.8933 1.3785 7.0941 5.1201 -0.7603 -6.5155 -0.3953 -1.2239 7.6277 1.1622 -1.8675 -9.9628 0.2042 0.7582 -10.2663 3.8318 -0.4403 -0.1574 -6.2152 -2.5950 3.4432 -5.7084 0.0918 4.2707 4.5507 2.8336 -2.0579 -4.3846 -4.5021 4.5420 4.8998 1.9512 -4.7488 -2.4457 -1.4471 2.1953 0.2658 2.3441 -7.8817 2.2052 -1.4595 1.8888 -0.3952 -3.5795 4.2655 0.5825 2.9732 2.8997 -4.9736 0.4598 7.0617 3.7349 -0.7006 -6.2161 -0.1220 -1.3270 6.2398 2.2249 2.6643 1.0889 1.9183 1.5311 -1.0613 1.3388 2.5646 -4.5050 2.3227 -1.2051 -8.0417 -4.3626 -1.8361 7.0772 -1.1069 -0.1024 4.3957 -0.2440 0.1608 2.2333 2.6721 2.0508 -6.3914 -2.5362 -3.0435 6.0770 1.0650 2.1047 -3.1909 0.9825 2.0915 1.7387 1.7584 -0.7771 -9.2762 2.8345 1.7410 0.0530 0.7033 0.2857 -9.0250 3.1486 0.4206 0.7384 -5.1774 -2.2363 4.3387 -5.5925 -1.0222 5.1423 3.5644 2.1110 -2.7813 -4.8787 -3.3926 5.2660 3.6867 2.4819 -4.2433 -1.2311 -1.9216 2.7655 1.2977 1.4471 -8.2561 1.8794 -0.2424 1.2369 -1.5776 -2.9107 3.8567 -4.5609 -0.7200 6.2146 3.0169 -0.1283 -7.4158 -1.3812 -0.9781 5.4808 2.1880 2.4091 -2.1977 2.5033 1.9065 -4.9900 -3.9230 -2.9903 6.3749 -0.4275 -0.7431 3.3152 1.0982 0.6434 2.1966 2.0201 0.9527 -7.0189 -2.1996 -2.1676 5.0210
-0.5618 2.4650 -1.3716 -1.2557 2.7922 2.4962 -2.7417 1.5244 5.8858 4.3973 -0.2738 -6.7671 -1.7809 -2.1652 7.4189 0.0653 -2.5947 -8.7227 -1.8003 -0.5370 -8.2755 4.7980 1.0838 0.7438 -4.8165 -0.5733 0.8749 -4.0938 1.5617 2.5928 4.0913 3.5025 -2.0963 -4.0429 -3.1869 1.8327 3.9112 2.3154 -4.6982 1.6851 -3.3484 2.7781 -1.3896 0.9604 -5.8530 3.7391 -0.6716 2.6677 -0.9164 -4.4882 3.2741 -0.1911 2.1608 3.1978 -4.0204 1.0975 5.4342 3.2610 -0.5359 -5.9576 -0.8793 -2.5388 6.3873 1.6447 2.8190 1.6530 2.2321 1.6743 -0.4274 0.4909 2.3102 -3.4976 1.5381 -1.5447 -7.2303 -4.2900 -1.2166 4.9514 0.0809 -0.8455 4.9624 0.7999 -0.6497 2.7200 1.3682 1.7428 -5.6153 -2.8315 -3.0293 4.3115 0.6619 1.9998 -2.1296 0.8149 1.6571 2.1732 0.4421 -1.3676 -8.1179 2.7699 2.3822 0.7284 -0.7381 -0.7817 -7.3679 3.6636 1.4343 1.5184 -4.1355 -0.7823 2.1005 -4.5200 0.3019 3.0927 3.1356 2.5201 -2.4644 -4.4956 -2.1361 2.6661 2.7856 2.6955 -3.9223 0.7504 -2.8380 3.7137 -0.3534 0.5300 -6.7220 2.8952 0.1881 1.9216 -0.6527 -3.1004 3.2185 -3.8179 0.0079 4.4074 2.0182 -0.2762 -6.7838 -1.0923 -1.5998 5.2205 1.9387 2.5785 -1.5298 1.6043 1.7954 -4.2197 -4.0328 -2.3124 4.0973 0.9535 -1.3526 3.9527 1.6404 0.5041 2.7316 0.9473 0.4216 -5.9484 -1.6748 -2.2797 3.9933
1.7298 -1.0974 -1.4242 3.1581 3.1134 4.0152 -3.3539 -4.5286 2.3355 0.5324 -2.6757 -5.1408 -1.6399 0.0453 6.7516 -0.9339 -0.0717 -9.5334 1.2640 1.6675 -9.7379 4.6678 -0.4140 0.9108 -5.2734 -2.7028 7.4147 -4.1746 -4.5769 5.5838 5.3034 2.2081 -2.2670 -5.1385 0.0136 6.5479 3.9874 2.8105 -4.7119 -0.8906 0.3495 0.4142 2.2835 2.6140 -7.2432 3.0253 0.0529 3.5053 -3.5530 -0.0818 1.3230 1.9763 3.4108 3.2901 -4.6252 -4.0674 2.7623 0.2043 -1.2964 -5.1428 -1.6905 -0.9847 5.7772 3.2202 3.0145 1.1231 2.9163 1.5019 -0.7102 1.5276 0.6422 -3.0480 -0.3410 -0.5411 -7.3189 -5.1147 -1.8250 3.3586 -0.3790 -0.9699 3.7956 0.4572 1.0061 2.8107 2.4488 0.5749 -5.2316 -3.8503 0.1111 4.1658 2.4714 -0.1987 -2.3851 1.9823 2.7077 1.9529 0.1285 -0.1101 -8.5922 3.8027 1.8076 0.4017 0.7389 1.2756 -8.4797 3.9761 0.7019 1.4276 -4.7117 -2.3224 6.1697 -4.9059 -3.4361 5.1642 4.2728 1.3945 -2.7916 -5.3927 -1.0694 5.6737 3.3092 2.2101 -3.6249 -1.1972 -0.3568 1.6016 1.8532 1.2799 -7.4543 2.7160 0.2627 2.1381 -2.4756 0.1728 2.2093 -4.4165 -2.9875 3.7990 0.7485 -0.6806 -6.4102 -1.5046 -0.3547 4.4187 3.5505 0.6297 -1.6932 2.1275 1.3833 -4.1083 -4.9869 -0.7316 4.2544 -0.0358 -0.3082 2.5797 1.5748 1.2500 1.9808 1.3669 0.6844 -6.1478 -2.7364 -0.5073 3.5405
1.8131 -1.1388 -0.0015 2.7851 4.6408 3.9247 -5.9725 1.1151 2.6691 -0.9789 -3.1135 -3.8637 -2.3495 2.1112 1.4683 -3.6576 0.3715 -6.6703 -1.5613 2.0494 -7.4981 5.6891 -0.3155 0.9125 -5.3321 -4.2692 0.5135 -6.6123 -1.7236 0.6570 5.2168 1.4353 -2.4692 -2.7056 -4.3050 1.6363 3.2389 1.8867 -4.4641 2.1568 -1.7246 3.8513 0.4873 2.4533 -5.5621 4.9213 0.4022 3.8539 -0.3805 -3.0129 3.8923 3.7110 3.5898 3.6983 -6.2057 -0.2140 3.1055 -0.9345 -1.7512 -3.4702 -2.3845 1.2666 2.6074 4.1945 3.0707 1.3023 3.3576 1.3907 -0.1852 1.2389 0.3710 -1.7560 -2.2575 -0.5587 -5.0405 -4.3342 -1.6155 3.5125 -0.1606 1.0549 3.4132 2.1609 1.0816 3.8369 1.2246 0.0741 -4.1178 -2.3295 -1.6308 2.2320 2.2752 -0.4882 -1.2844 3.2605 2.8235 2.4810 -2.3127 0.1099 -6.2972 4.5591 1.8122 0.5205 -1.5596 1.4262 -6.2240 5.1298 0.8252 1.5249 -4.7312 -3.1313 1.1093 -5.8060 -2.2444 1.7008 3.9877 0.7369 -2.4926 -3.7815 -3.5756 2.2006 2.9021 1.5738 -3.1270 0.9340 -1.0131 3.9496 -0.1289 1.1959 -5.7842 4.1903 0.4271 2.6401 -0.1406 -1.7904 3.2164 -5.1644 -1.1055 2.4722 -0.9109 -0.8998 -4.7180 -1.1384 0.4131 2.6008 3.5837 0.2784 -1.1026 1.5286 0.9310 -3.0307 -3.2557 -2.3924 2.9963 1.0695 0.3513 3.3000 3.0053 1.3585 2.7456 -0.1087 0.3737 -4.5097 -1.4262 -0.9875 3.1236
0.5391 3.0882 -2.7468 -1.1740 3.5573 0.5656 -5.0897 1.0995 6.5416 -0.8855 1.2289 -5.8178 -0.3235 0.4800 7.5034 0.8546 0.0717 -10.8877 3.4606 -0.6357 -10.1462 3.7499 -0.6636 0.3024 -5.4748 -4.3134 4.2227 -6.0852 -1.5196 4.2131 5.0365 1.2172 -2.2220 -3.1595 -4.9797 5.7713 5.3110 1.3216 -5.0393 -2.5698 -1.7220 2.6295 4.5440 0.8497 -7.9517 1.8518 -1.3477 2.2121 -0.0435 -3.0146 4.8679 -0.3739 3.0068 1.6007 -5.7702 -0.1269 6.7496 -0.0385 1.9656 -6.6838 -0.1652 -0.3955 6.3992 1.8258 2.5233 0.5805 2.2145 1.0789 -1.3598 2.1253 3.0124 -4.5030 0.5558 1.0952 -8.8016 -4.3431 -1.9070 7.4110 -1.4054 0.2195 4.4085 -0.6190 0.1905 2.1789 2.6212 1.0808 -5.7903 -2.1211 -2.5535 6.7354 1.6413 2.2711 -3.3857 0.4985 1.9279 1.0064 1.2602 0.0944 -9.5281 2.7385 1.4948 -0.0634 2.7485 0.3760 -9.4527 2.9104 0.3191 0.8828 -4.7258 -3.3459 4.9383 -5.6316 -2.2100 5.3672 3.9144 1.2721 -3.0907 -4.0902 -3.9858 6.1535 4.3109 2.0367 -4.3360 -1.2619 -1.8725 3.1659 3.2013 0.3970 -8.0081 1.5856 -0.2973 1.2959 -1.3553 -2.6763 4.4439 -4.8779 -1.2449 6.2668 0.8550 0.9909 -7.4135 -1.4827 -0.4565 5.6612 2.7536 1.9618 -2.3899 3.1171 2.2939 -5.2350 -3.4460 -2.9499 7.0572 -0.6539 -0.4979 3.4271 0.6757 0.7434 1.9491 2.3240 1.3029 -7.1643 -2.0580 -1.8533 5.5087
3.4969 -1.5021 -2.0539 2.6300 3.1183 3.9505 -3.8444 -4.3765 2.4531 3.2596 -2.4891 -6.8565 -1.4396 -0.1950 6.9060 -0.9650 -0.6555 -9.3874 -0.6971 2.0799 -8.8158 5.1627 -0.5133 1.4784 -5.8214 -2.2573 7.3948 -4.9088 -4.2912 5.6343 4.5450 3.3145 -2.2150 -5.1825 0.3970 6.5698 2.7322 3.5041 -4.4040 -0.7451 0.0604 0.5286 0.3131 2.6792 -6.2186 3.5416 0.3120 3.5043 -3.4165 0.0976 1.4424 1.7146 3.2161 2.8727 -5.0548 -3.7216 2.7949 2.2282 -1.8336 -6.1361 -1.7514 -1.1373 5.8926 3.4684 2.4511 1.2203 3.1636 1.1979 -0.8096 2.1277 0.0682 -3.2184 0.5587 -1.1526 -7.6803 -5.2183 -1.4284 3.3731 -0.4016 -1.2365 3.9396 0.6576 0.6267 2.9424 2.4744 0.9600 -5.3946 -3.7152 0.2771 4.2889 3.4658 -0.1904 -2.8012 2.0720 2.2400 1.7772 0.1207 -0.1687 -8.6126 3.9811 1.2836 0.3920 -0.3213 1.0845 -7.8779 3.8787 -0.0388 1.1317 -5.1094 -1.9770 6.2009 -5.4084 -3.0460 5.1733 4.0455 2.1747 -2.8892 -5.5392 -0.6314 5.6664 2.6725 2.4497 -3.4625 -1.1367 -0.5529 1.7421 0.8054 1.6144 -7.0153 2.9115 -0.0939 2.3015 -2.3211 0.1717 2.3395 -4.7508 -2.6867 3.8533 1.7133 -0.6929 -6.9819 -1.4583 -0.5016 4.5549 4.0189 0.9633 -1.9710 2.0377 1.2082 -4.0675 -4.9794 -0.3665 4.2840 0.0253 -0.6290 2.7205 1.7097 0.7853 2.0117 1.3432 0.5082 -6.1276 -2.6897 -0.4775 3.6612
1.8013 -2.1932 -2.4705 3.8622 3.7655 3.0007 -4.7817 -3.3362 2.1501 2.6888 -2.3183 -6.6986 -0.7937 0.6222 7.3941 2.4965 1.2431 -10.8224 2.9697 3.5186 -9.2431 4.1178 -1.4165 -0.0928 -6.6879 -2.1149 7.6095 -6.5354 -3.8594 5.3496 0.0536 2.2888 -1.5280 -4.5961 -0.1607 7.6825 0.0724 2.7815 -4.3338 0.0931 -2.0889 2.0718 1.7692 3.4713 -6.6575 4.2403 -0.7306 2.7796 -0.8680 -2.4818 4.6309 4.1000 2.5996 2.2290 -5.8069 -2.6191 2.8196 1.6439 -1.4321 -7.0649 -0.3380 -0.0038 6.2060 2.7200 2.0282 0.2334 1.5858 0.0259 -0.5702 0.8892 -0.7890 -4.1248 1.9781 0.0276 -8.8905 -4.9823 -0.7979 4.1043 -0.3396 1.0026 4.0037 1.0180 0.5560 2.1638 1.9556 0.9455 -5.3381 -3.0626 -0.9439 5.5127 1.6995 -0.7617 -2.9477 2.7691 2.0693 1.7550 2.6885 1.1423 -9.4191 2.8906 0.6520 -0.4005 2.2074 2.4235 -8.7614 3.7700 -0.1867 0.5123 -5.6976 -2.0008 6.6013 -6.2682 -2.4687 5.2786 0.8592 1.5434 -2.4305 -5.2536 -0.5571 6.4915 0.1484 1.4913 -3.7633 -0.6165 -1.0432 2.7144 2.3607 2.3322 -7.2571 3.1761 -0.4258 1.8916 -1.5624 -1.6155 3.7464 -5.2743 -2.1920 4.1662 2.2641 -0.1270 -7.5021 -1.1650 0.5113 5.0501 1.0468 0.1332 -1.9091 0.7568 0.4930 -4.7277 -4.3387 -0.3472 5.2975 0.3575 -0.0193 3.2866 2.3992 0.7649 2.4457 1.7065 1.0662 -6.7345 -2.1872 -0.4674 4.5098
4.6722 -0.3345 -2.5741 1.7420 4.1172 3.5210 -3.2871 -2.2099 6.8935 4.0347 0.5502 -6.5904 -2.7677 1.2964 0.7579 -0.3861 -1.3777 -9.2495 -2.2448 0.0387 -7.7001 5.9756 0.0490 1.5666 -6.8662 -0.0568 2.7285 -5.9326 -0.1620 5.4125 1.8068 3.3859 -1.0229 -5.0885 -1.2033 0.8016 -0.2570 2.3079 -2.6322 1.4566 -2.1649 4.0779 -1.5530 0.3540 -4.9474 4.5929 0.5951 3.7807 -1.1615 -3.2878 4.1306 2.8214 3.1982 3.5047 -4.4806 -2.5369 6.2006 3.1063 -0.4628 -6.2326 -2.7793 0.8752 2.1123 3.8332 2.5577 1.3238 3.1375 0.9320 -0.3689 2.3096 -0.2924 -2.9117 1.2594 -0.9693 -7.6334 -4.1557 -2.9799 3.8956 -0.6490 0.6395 3.1176 1.6432 0.6004 3.6932 1.2296 1.0185 -4.5746 -2.8219 -2.0887 2.0545 3.4598 0.5399 -2.7753 2.6813 2.3135 2.2874 0.0362 -0.5164 -8.2031 4.2347 1.3397 0.5042 -1.0438 -0.4636 -7.1366 4.5760 0.1584 1.3957 -5.6180 -0.6275 3.0839 -5.7053 -1.2069 4.4799 2.0659 2.4110 -2.0148 -5.2704 -1.7239 2.1040 0.8546 1.5275 -2.2331 0.2786 -1.3784 3.9991 -0.6121 0.4436 -6.0043 3.8158 0.0741 2.7145 -0.8038 -2.1874 3.3159 -4.4125 -1.9259 4.8206 1.7309 -0.0238 -6.6784 -1.6085 -0.0511 2.3242 3.2913 1.5770 -1.6708 1.1469 0.4548 -3.2709 -4.0692 -2.5210 2.5604 0.5443 -0.1345 3.1740 2.5080 0.8365 2.6040 0.7649 0.0512 -5.5060 -2.0357 -1.3555 2.9904
5.2863 0.4680 -2.6860 3.0746 3.1493 3.7753 -3.8661 -2.6083 8.5048 5.0640 1.4064 -7.6418 -1.4906 -0.4551 6.7669 1.4034 -1.4346 -10.2798 -0.8379 -0.6908 -8.7658 4.9867 -0.1754 0.8291 -7.9651 -0.9959 4.7602 -6.8912 -1.4406 7.3642 1.3844 3.3851 -1.8328 -5.9929 -0.7944 2.7122 0.0310 1.9784 -3.8751 -0.6851 -0.0232 0.4487 -0.3613 -0.3469 -5.9785 3.3138 0.0689 3.3957 -3.2563 -0.8266 1.3378 1.8693 3.3518 3.0559 -4.6452 -3.2764 7.5261 4.3752 0.3054 -7.0707 -1.3176 -1.4826 5.8039 3.0130 2.9912 0.8378 3.0405 1.2373 -0.8767 3.1122 0.0048 -3.5631 2.8028 -0.6504 -8.5719 -4.3345 -2.9101 5.2035 0.0050 -1.2766 3.8377 0.6533 0.7479 2.8041 2.1127 1.0837 -5.4362 -3.6203 -0.8873 4.1686 3.9787 1.0596 -3.1546 1.8895 2.5685 1.7645 1.5215 -0.5395 -9.1844 3.7922 1.8449 0.2132 0.4384 -0.8526 -8.1679 4.1419 0.8523 1.3061 -6.5758 -1.1252 5.0161 -6.3638 -2.0482 6.1965 2.0698 2.5375 -2.7335 -5.8926 -1.6996 3.7958 1.1640 1.4302 -3.2263 -0.8917 -0.7728 1.6302 0.5498 0.0789 -6.9788 2.9573 0.2553 2.0374 -2.2339 -0.4378 2.2408 -4.8813 -2.3196 6.3808 2.9466 0.3414 -7.5599 -1.2113 -0.8368 4.4433 3.3339 1.9655 -2.1100 1.9112 0.4904 -4.1596 -4.4407 -2.0465 4.0737 0.2602 -0.6024 2.6075 1.6886 1.0774 1.8985 1.9661 0.0734 -6.4279 -2.3827 -1.1971 3.5449
-0.6441 1.7173 -2.8906 -2.2447 0.8251 0.6922 -2.7848 1.5287 6.6652 5.0241 1.0059 -4.9557 -1.0079 -1.1680 7.4472 1.4587 -2.9089 -7.0289 0.0147 -0.9740 -8.4512 4.2514 0.7334 0.0165 -5.5016 -0.9424 2.2638 -4.3064 1.2176 3.6975 3.6774 3.8376 -2.0436 -4.6702 -3.5293 3.1765 3.8833 4.3573 -4.8262 1.0316 -3.7585 2.6094 -0.0967 1.6140 -7.2729 3.1162 -1.1141 1.7883 -1.3481 -4.7324 3.8365 -1.1906 1.2425 1.5452 -4.0421 0.8787 6.5709 3.8196 0.3480 -4.5985 -0.4543 -1.8678 6.3441 0.8490 2.2105 0.5390 1.9648 1.4610 -1.5069 0.5151 2.9542 -4.5409 2.5036 -1.2138 -5.7964 -4.2962 -1.4561 6.1969 -0.2668 -0.7068 4.2336 0.2868 -1.1894 1.9950 2.3711 2.4267 -6.0519 -2.8426 -3.1370 5.2801 0.7153 2.0467 -3.4651 0.1187 0.9224 0.8652 1.8584 -1.5472 -7.0212 2.1775 1.9608 -0.1550 0.6371 -0.6650 -7.2152 3.0210 0.9977 0.6679 -4.6057 -1.1264 3.3465 -4.7497 0.0228 4.3226 2.9532 3.0908 -3.0113 -4.9093 -2.4349 4.0383 2.6721 3.9906 -4.1907 0.2986 -3.0130 3.5636 1.0558 0.7909 -7.2197 2.2895 -0.2986 0.9727 -1.1697 -3.3688 3.5055 -3.9182 -0.2388 5.5646 3.0129 0.1155 -5.8539 -1.1553 -1.3920 5.0942 1.6606 2.5782 -2.3968 1.7261 3.3389 -5.1729 -4.1410 -2.5763 5.3380 0.5125 -1.5242 3.3632 0.9931 0.0093 1.7079 1.8621 1.1051 -5.9742 -1.9858 -2.4446 4.3914
4.5835 -1.3336 -2.5780 1.2104 3.9739 2.5446 -3.9224 -4.6064 2.7487 4.0362 -1.3431 -8.0869 -1.4326 0.6156 6.9372 -0.9066 -0.6777 -9.3793 -1.5106 1.7169 -8.0460 4.8160 -1.2961 1.3625 -5.6528 -2.3011 7.5393 -4.7693 -4.3154 5.7541 3.9258 3.4842 -1.8029 -5.1709 0.3729 6.6573 2.1516 3.4671 -4.0392 -0.7702 -0.1991 0.6596 -0.2364 2.0548 -5.5263 3.5021 -0.0215 3.4335 -3.4702 -0.1835 1.4864 2.1912 2.9968 2.8529 -5.0649 -3.7836 2.9179 3.1272 -1.1971 -7.0074 -1.8735 -0.4636 6.1286 3.7010 1.9920 1.1679 3.2944 0.7990 -0.8890 2.7389 -0.1423 -3.5110 1.0290 -0.9033 -8.0809 -5.2939 -1.4929 3.4783 -0.4788 -0.9111 4.2552 0.6478 0.6969 2.9340 2.5217 1.1877 -5.4789 -3.9064 0.3738 4.2455 4.0857 0.0041 -3.0701 2.2759 2.0319 1.6947 0.0780 0.0094 -8.6213 4.0447 0.7537 0.3574 -0.6062 0.7705 -7.5002 3.6646 -0.5322 1.0712 -5.0181 -2.0031 6.3064 -5.3289 -3.0923 5.3037 3.8290 2.3871 -2.6912 -5.5309 -0.6818 5.7877 2.4434 2.3045 -3.2895 -1.1723 -0.6441 1.9401 0.4193 1.4931 -6.6513 2.7596 -0.3890 2.2825 -2.4126 0.0922 2.3891 -4.7478 -2.7237 3.9494 2.0698 -0.1958 -7.4102 -1.5847 -0.1187 4.6877 4.2009 1.0851 -2.0006 2.2214 1.0411 -4.1025 -5.0768 -0.4125 4.3701 -0.0381 -0.5475 2.9485 1.6986 0.6547 1.9837 1.4935 0.5198 -6.1997 -2.7854 -0.3667 3.7870
4.6398 -0.7892 -2.6396 4.2334 1.7331 3.9638 -5.0178 -0.2584 1.3790 4.5363 0.4350 -7.8566 -0.5725 -2.7918 5.9234 -0.1281 -0.5394 -10.0553 -1.7790 0.8746 -8.2819 4.3334 -1.4750 0.6333 -4.8913 -4.4974 5.3574 -5.1340 -3.4995 2.6976 2.3188 3.4358 -1.5401 -3.6984 -2.6583 7.1886 0.4479 2.7980 -3.5657 -1.1250 2.4881 2.4085 -0.9737 0.7955 -5.5532 2.8930 -1.1246 3.2643 -3.2990 1.9013 4.1490 3.0746 2.4601 3.5900 -5.8754 -0.7036 2.4179 3.5488 -0.2772 -7.1283 -1.3305 -2.5755 4.7442 3.6690 2.1650 1.1503 2.9504 0.7601 -0.7174 2.4414 -0.2848 -3.4258 1.6045 -0.4684 -8.4786 -5.1728 -0.4168 4.6719 -0.7189 -1.1146 2.9763 0.8219 0.6702 3.1796 1.9050 1.1695 -5.2315 -2.9842 -0.4197 5.7621 3.6769 0.3047 -3.0327 2.5984 2.0397 2.2187 0.4154 0.1606 -8.9465 3.9343 0.9006 0.3475 -0.6142 0.2005 -7.8325 3.9322 -0.2893 1.2895 -4.4788 -3.1962 4.9755 -5.3547 -2.6967 3.8469 2.5653 2.4202 -2.4935 -4.5824 -2.2620 6.1584 1.2682 1.8063 -2.9749 -1.5263 1.1678 2.7238 -0.0567 0.9285 -6.6270 2.6215 -0.5170 2.0139 -2.1190 1.1165 4.1152 -5.0144 -1.2534 3.5290 2.2010 0.3211 -7.4544 -1.1584 -1.1349 4.3336 3.4936 1.3511 -1.9381 1.5271 0.6723 -3.9548 -4.3489 -0.8192 5.7581 -0.3662 0.2012 2.5583 1.8108 0.7533 2.1760 1.2965 0.3590 -6.2315 -2.4385 -0.3269 4.4581
0.7890 2.8602 -3.3338 -2.0801 1.3249 0.4528 -5.5038 1.1995 4.6478 3.6227 -1.2959 -5.5825 -1.5158 1.6837 6.2275 -0.5816 0.1906 -9.1827 0.9013 2.4341 -10.0159 3.7935 -1.1336 -0.1077 -5.6821 -4.6144 5.6807 -6.3299 -2.3122 4.1220 5.2188 1.0939 -2.2062 -3.2981 -4.2641 7.2549 6.0971 1.8620 -4.7881 -2.0370 -2.9741 2.8464 2.4591 3.6614 -7.9455 3.0335 0.3043 2.2152 0.0229 -2.5493 5.7897 -0.8596 1.8070 0.9932 -6.1060 0.2430 5.5039 2.3639 -0.6421 -5.6023 -0.8970 0.4971 5.7547 1.3764 1.6944 -0.0494 2.3145 0.6619 -2.0411 2.6976 3.2154 -4.6884 0.8736 -0.0846 -7.3674 -4.6209 -0.8392 7.0058 -1.6332 -0.2727 3.5865 -0.1932 -1.0477 1.8756 3.8273 1.7483 -6.2827 -2.3651 -1.6857 6.9116 2.0672 2.2439 -3.8578 0.2494 0.8822 0.5503 0.7252 0.4395 -8.6833 2.4964 0.8239 -0.6014 0.9753 1.9386 -8.6876 2.5052 -0.5604 0.0352 -4.9404 -3.4055 5.7220 -5.8686 -2.2378 5.4631 4.3136 1.3103 -3.2798 -4.2899 -3.2703 7.0787 4.9039 2.3565 -4.2000 -0.8882 -2.5833 3.5875 2.3393 2.2592 -8.1111 2.1289 -0.5397 1.5087 -1.1903 -2.7219 5.0691 -5.1517 -0.9171 5.6834 2.2143 0.0872 -6.9191 -1.9282 -0.2819 4.9754 2.9719 1.7694 -2.7295 3.9092 2.7493 -5.2743 -3.7135 -1.8881 7.2976 -0.5436 -1.1367 3.2549 0.7293 0.0251 1.7131 2.5093 1.5712 -6.7724 -2.2120 -1.6799 5.5024
2.9858 -1.2413 -0.5588 1.8929 3.9351 4.5308 -2.5784 -4.0645 4.7176 1.4882 -3.2163 -4.2410 -3.0287 2.4699 1.7495 -2.8154 -1.3926 -6.9275 -1.8296 1.1807 -7.4727 5.6306 0.0322 1.0053 -6.6879 -0.2237 3.0679 -5.3369 -1.7926 5.0247 4.6419 3.0829 -2.2692 -5.2240 0.1368 0.6351 2.4103 3.0934 -4.0302 1.6147 -1.9158 2.4580 -0.2600 2.3238 -5.3727 4.4051 0.1109 3.8713 -0.8971 -3.0805 1.8872 3.0355 3.2112 4.1032 -3.8275 -4.0689 4.0463 0.5822 -2.2257 -3.7827 -2.9162 1.3271 2.5807 3.7866 3.1875 1.7218 3.3271 1.6840 -0.0943 1.6298 0.2311 -1.8489 -1.1435 -1.6786 -5.3122 -3.8593 -3.0334 1.9133 -0.6883 0.8067 3.1788 1.6331 0.6528 3.5769 1.6069 0.4654 -4.2115 -2.7838 -1.1065 0.8789 2.9790 -0.1758 -1.6286 2.7586 2.6733 2.7222 -1.5188 -0.9948 -6.5045 4.3798 2.1111 0.8173 -1.5204 0.5047 -6.2643 4.9056 1.0092 1.7231 -5.4033 -0.7850 2.8556 -5.2800 -2.0765 3.6359 3.8448 1.9347 -2.4873 -5.2112 -1.0623 1.3829 2.4268 2.3233 -2.8449 0.3933 -1.2924 2.8188 -0.1641 0.9657 -5.7723 3.8531 0.3481 2.5895 -0.6663 -1.6863 1.8121 -3.9661 -2.7599 3.3078 0.1994 -1.3551 -4.9573 -1.6746 0.5682 2.1781 3.8654 1.0171 -1.2745 1.5078 1.1190 -2.9554 -3.9547 -1.8618 1.1253 0.5427 0.2163 2.7785 2.5897 1.1721 2.6844 0.2833 0.1193 -4.5975 -1.9640 -0.9234 2.0292
4.3417 -1.2131 -2.3525 1.1532 3.7414 3.3985 -3.6575 -4.0236 2.9026 4.8658 -0.4398 -6.6635 -1.5921 -3.0145 5.3359 0.5797 -0.6871 -10.1720 -0.6993 1.5272 -8.9829 4.7294 -1.0053 0.8333 -5.9231 -1.4346 7.7842 -4.8334 -3.7329 6.4946 2.8435 3.4642 -1.8736 -5.2956 1.0306 6.4990 0.8043 2.9005 -3.7430 -1.0509 0.5636 0.4919 -0.5103 1.5893 -6.1266 3.1590 -0.4070 3.4969 -3.5773 0.5309 1.7698 2.2428 2.8437 3.2333 -4.8749 -3.6988 3.5585 3.5935 -1.0640 -6.5631 -1.4001 -1.6405 5.6339 3.3769 2.4614 1.0489 3.0222 0.8243 -0.7209 2.2877 -0.4167 -3.2923 1.9359 -0.9018 -8.2729 -5.0894 -1.3428 3.7431 -0.3862 -1.4738 3.4495 0.6209 0.5364 2.7696 2.1690 1.0026 -5.1918 -3.4273 0.1731 4.6558 3.6153 -0.0258 -2.9347 2.1289 2.2005 1.8711 1.1402 -0.0138 -9.0552 3.9272 1.2294 0.3445 0.0141 0.5692 -8.2154 4.1202 0.1439 1.3922 -5.1484 -1.3674 6.5974 -5.3593 -2.6263 5.7825 2.8734 2.3027 -2.6776 -5.5545 -0.1605 5.7776 1.4789 1.8575 -3.0622 -1.3428 -0.2817 1.5895 0.5697 1.2405 -6.9771 2.8541 -0.2525 2.1235 -2.3625 0.3807 2.4890 -4.6454 -2.4975 4.4484 2.5757 -0.1725 -7.2315 -1.2633 -0.8295 4.3614 3.6283 1.1742 -1.9984 1.5724 0.6307 -3.9557 -4.8088 -0.1379 4.4554 -0.0757 -0.6286 2.3465 1.7227 0.7419 1.9132 1.5216 0.3094 -6.2439 -2.5902 -0.4797 3.7150
4.2139 -0.7124 -2.4288 4.0261 4.3775 3.5596 -5.9457 1.3223 3.2053 2.8659 0.6140 -5.7143 -1.5646 2.6249 1.6826 -2.0416 -0.7574 -8.3591 -3.4922 0.5009 -6.3100 5.3978 -1.2314 0.9194 -4.7915 -3.7362 0.0741 -6.3374 -1.3538 0.1714 1.5584 2.8264 -0.1937 -2.3892 -3.6462 1.5911 -0.7182 1.7642 -1.4710 1.9142 -1.9127 4.4117 -2.3315 0.2914 -3.7084 5.2675 -0.4690 3.8690 -0.7421 -2.7928 4.0275 4.4275 3.0203 3.6711 -6.4000 0.0880 2.6743 1.9794 -0.4737 -5.9243 -1.9003 1.8328 2.8115 4.2313 2.2778 1.3206 3.1594 0.4777 0.0500 1.8221 -0.6962 -2.4039 -0.1183 -0.6872 -7.0207 -4.4920 -1.1912 3.3223 0.1066 1.2391 3.9390 2.0434 0.4051 2.8606 0.5207 0.7765 -3.7450 -2.3232 -0.9925 2.3630 2.9712 0.1443 -2.3902 3.6125 2.1982 2.7019 -1.3844 -0.0923 -7.2910 4.4153 0.9580 0.6048 -2.2611 -0.1568 -6.0534 5.0746 -0.0113 1.5563 -4.4013 -2.5979 0.8229 -5.6295 -1.8505 1.2945 1.6669 1.9281 -1.2800 -3.5915 -3.0334 2.0237 0.4700 1.0030 -1.3415 0.8060 -1.0314 4.4033 -1.5747 0.5192 -4.8854 4.3148 -0.2760 2.8349 -0.2680 -1.5694 3.4870 -5.2044 -0.6989 2.1886 0.5736 0.0700 -6.0326 -0.8311 0.7792 2.9699 2.9655 1.1387 -1.2362 0.6103 0.0524 -2.5213 -3.2908 -1.8592 2.9434 1.2356 0.3751 4.0285 3.3487 0.8129 3.2609 -0.1658 -0.0170 -4.7043 -1.4088 -0.5709 3.3706
4.9320 -0.3037 -2.8231 1.2348 4.4484 2.3323 -3.6161 -3.4696 7.1179 2.4895 0.3955 -8.3169 -1.6560 -1.0542 6.0329 -1.0300 -3.2615 -5.9969 -1.9418 -1.4282 -4.0719 5.6377 0.0745 1.3153 -7.8826 -1.0265 4.0338 -6.7180 -2.0437 6.4338 3.6298 4.4130 -1.8919 -5.9602 -0.3710 2.0197 2.4429 3.9632 -4.6114 -0.4304 0.5331 -0.0429 0.0324 0.3875 -3.1022 3.7947 0.7414 3.2075 -3.0847 -0.2197 0.6165 1.9506 3.2776 2.6905 -4.5019 -3.8934 6.0932 2.5700 -0.4788 -7.2020 -1.3595 -1.8690 4.9101 3.6757 2.8423 0.9660 3.6682 1.6094 -1.1196 4.0139 1.2509 -4.4370 0.7855 -1.8592 -6.4613 -4.2932 -3.0406 3.8882 0.0463 -1.3908 3.0619 0.9322 0.6988 2.3901 1.7531 1.4092 -5.1699 -3.5612 -0.8466 3.3381 4.8088 1.1332 -3.2650 2.2692 2.5011 1.4322 -0.5477 -1.9272 -5.9650 4.3569 1.7518 0.1575 -0.6011 -1.4177 -4.5347 4.3393 0.4083 0.8669 -6.4876 -1.2209 4.1991 -6.2544 -2.3852 5.1374 3.8723 3.3707 -2.8148 -5.8584 -1.5104 2.8544 2.5983 3.0200 -3.5616 -0.7337 -0.4208 0.9565 -0.0634 -0.0045 -4.4610 3.3020 0.2494 1.9697 -2.0654 -0.1011 1.5956 -4.7733 -2.7129 5.1900 1.2206 -0.5047 -6.5220 -1.1608 -0.9769 3.7066 4.5228 2.1574 -2.1672 2.6769 1.6034 -4.1118 -4.4087 -1.9366 2.9941 0.3956 -0.5463 1.9696 2.0459 1.0025 1.5703 1.3023 0.0656 -5.1156 -2.3099 -1.0863 2.7178
5.5106 0.1352 -3.2064 1.8992 3.5167 3.6270 -4.1891 -4.1457 1.7929 2.9768 1.1297 -9.1553 -1.1041 -0.2329 6.9186 -0.7169 -2.3148 -8.0704 -2.0296 -1.0357 -5.9413 4.6719 -1.4569 0.7058 -5.5515 -2.8505 7.0779 -4.8780 -4.4813 4.8590 3.3412 4.0045 -1.4485 -4.9166 -0.0852 6.7646 2.1554 4.1406 -4.1046 -0.7313 0.2325 0.5938 -0.3433 0.4384 -4.1826 3.5972 -0.6154 3.0854 -3.3947 0.3334 1.5264 2.7909 2.4370 3.4054 -5.2655 -3.3283 2.2224 2.9429 0.6386 -7.8244 -1.7160 -1.0574 5.9390 3.8976 1.8658 1.2739 3.1782 1.1785 -0.9424 3.7569 1.2700 -4.3670 1.1018 -0.8637 -7.8113 -5.2843 -1.2040 3.2719 -0.4299 -1.2456 3.9471 0.8123 0.5027 2.9532 1.7490 1.8923 -5.5042 -3.7088 0.3258 4.3561 4.1216 0.7133 -3.1079 2.5667 1.9085 2.0066 -0.2966 -1.0411 -7.6046 4.0090 0.8031 0.1945 -0.6281 -0.9232 -6.1269 3.5721 -0.5723 0.6633 -4.9433 -2.3334 5.9056 -5.3691 -3.1586 4.7116 3.5368 3.0689 -2.4879 -5.3787 -0.9019 5.7071 2.3020 2.9448 -3.3581 -1.1460 -0.4304 1.7720 -0.1594 0.4126 -5.5883 2.7573 -0.6170 1.9429 -2.2936 0.3096 2.4184 -4.8202 -2.5431 3.4360 1.4978 0.4502 -7.4251 -1.4355 -0.4576 4.5833 4.0453 1.7318 -1.9753 2.4172 1.7307 -4.2672 -4.9478 -0.3615 4.3616 0.0149 -0.6523 2.7292 1.8256 0.5814 1.9670 1.3059 0.6111 -5.9257 -2.6765 -0.3978 3.7058
3.0212 -1.5920 -1.4518 3.5015 4.3796 4.4013 -3.2486 -3.1358 5.3835 3.2035 -1.3515 -5.7286 -2.3484 2.8141 1.3313 -1.4989 -1.9168 -7.9890 -2.7599 0.4003 -7.0315 4.4504 -1.2585 1.4382 -6.5467 -0.3503 1.8863 -5.6198 -1.4833 4.3167 2.9290 3.3607 -1.1543 -4.5482 -0.0837 -0.1410 0.4123 3.2648 -2.4324 1.5653 -1.6775 3.7729 -2.0530 1.1549 -4.3644 4.6502 0.1345 4.3122 -0.3834 -2.7745 2.1334 4.2008 3.2608 3.8818 -3.6568 -3.6104 4.1105 2.0396 -1.4842 -4.9292 -2.5984 1.6122 2.0411 4.0867 2.4652 1.5509 2.8529 0.8339 0.2242 1.0630 -0.2882 -1.8683 0.1496 -1.6830 -6.3439 -3.2501 -2.8689 1.8933 -0.7006 1.1790 3.4013 1.5507 0.9835 2.6983 0.7883 0.9375 -3.8917 -2.1375 -0.9847 0.7947 2.4858 -0.2672 -1.9348 3.3208 2.5820 2.8584 -0.8196 -1.0072 -7.1378 4.1077 1.0906 0.9110 -1.8285 -0.3169 -6.2372 4.4697 0.0566 1.9547 -5.2000 -0.7517 2.0798 -5.1576 -1.9148 3.0469 2.4693 2.1928 -1.8035 -4.6108 -1.1743 0.7555 0.9558 2.1229 -1.7933 0.3628 -0.9793 3.5287 -1.1242 0.6506 -5.3097 3.7032 0.1111 3.2560 -0.2145 -1.3702 2.1880 -3.7359 -2.4352 3.1625 0.9128 -0.7374 -5.6022 -1.3039 0.8397 2.1486 3.0857 0.9323 -1.2115 0.4897 0.8587 -2.4998 -3.2620 -1.8385 0.9186 0.5572 0.5287 3.6091 2.7495 1.2851 3.4100 0.0208 -0.0347 -4.5886 -1.5487 -0.6615 2.0447
3.2641 3.5758 -2.6779 1.0859 4.6171 3.0943 -4.8997 -5.7708 6.0246 0.6848 3.7580 -5.7715 -2.2955 1.0335 6.3217 -0.0416 0.8317 -10.3827 0.0133 -1.6475 -9.0732 5.1986 0.0521 0.9584 -7.2832 -0.5360 5.8508 -6.9321 -3.1851 6.8433 3.5686 -1.2020 -1.5758 -5.1265 0.4417 4.2791 3.1719 -1.7574 -4.3151 -0.5558 -1.4387 1.3931 1.8724 -1.8209 -6.9095 4.5679 1.4727 3.2636 -1.3701 -3.3180 3.2912 2.2574 3.8171 3.1596 -5.6344 -5.0572 5.0451 1.6124 3.0752 -6.5994 -1.2765 0.4378 5.5352 3.1932 2.9604 1.0508 2.6291 1.4161 -0.7329 3.5268 1.8868 -4.3028 0.9062 1.8364 -8.4918 -4.7995 -3.1799 3.8701 -0.8460 0.8016 3.1788 1.2396 0.5331 2.1391 1.8067 0.5114 -5.2051 -3.2103 -1.5957 4.6339 2.8940 2.1591 -3.0538 2.1417 2.7241 2.1238 0.1328 0.7428 -8.9775 3.6339 1.7351 0.2744 0.8292 -0.5647 -8.6531 3.8806 0.5218 1.1487 -6.1187 -1.3062 5.6007 -6.4829 -2.7742 5.5630 2.9998 -0.2495 -2.4620 -5.5325 -0.9116 4.2636 3.5740 -0.4845 -3.8423 0.0000 -1.4313 2.7042 1.0677 -0.6797 -7.1607 3.5661 0.6998 2.6218 -1.0048 -2.0066 3.6862 -5.2753 -3.5947 5.1495 0.9653 1.7938 -7.0692 -1.7928 0.3040 4.1186 3.3283 1.1576 -1.9892 3.1739 0.6057 -4.8213 -4.3828 -1.8170 3.8589 0.3383 0.0039 3.1055 2.2032 1.3588 2.7939 1.7534 0.5685 -6.6275 -2.2202 -1.1046 3.7488
3.5594 -1.3654 -1.5064 2.5521 3.8106 4.9959 -3.6434 -2.7192 5.1147 3.0954 -1.2193 -6.2534 -1.0452 2.2480 1.0191 -1.9683 -1.7222 -8.1738 -2.9692 0.5866 -6.9226 5.0032 -0.4916 1.3299 -5.5573 0.5720 0.6668 -5.6769 -0.3749 3.3567 2.3713 3.4321 -1.1776 -3.0802 0.0532 -0.6474 0.0665 2.8395 -2.6913 1.3246 -2.1424 4.9619 -1.9407 1.0824 -4.3165 3.9975 -0.6332 4.0825 -0.3795 -3.1354 2.9120 3.3353 2.8740 4.2781 -4.3792 -2.9054 3.9172 1.9425 -1.6504 -5.5494 -1.7143 1.5318 2.0446 3.0377 2.6464 1.8239 2.6272 0.8934 0.1984 1.4157 -0.5268 -2.1172 -0.1091 -1.6734 -6.7493 -3.1943 -2.6234 1.8782 -0.6171 0.8655 4.0456 1.6937 0.5591 4.6902 0.9155 0.6518 -4.1231 -1.3825 -1.1750 1.1081 2.7908 -0.1767 -2.0189 2.4722 2.2976 3.1860 -1.1381 -0.9054 -7.3604 3.6477 1.4947 1.0466 -1.9969 -0.2393 -6.3001 4.2657 0.5034 2.0093 -4.4895 -0.1136 1.2972 -5.0394 -1.0923 2.3126 2.2262 2.2030 -1.8591 -3.6843 -0.8532 0.2552 0.7696 1.8198 -2.0002 0.2142 -1.4207 4.4598 -1.1411 0.6141 -5.3876 3.2824 -0.1270 2.9706 -0.0353 -1.7664 3.0100 -3.8935 -1.9074 2.8932 0.7698 -0.8238 -6.0179 -0.7281 0.5659 2.6541 3.0205 1.0896 -1.1950 0.6366 0.4930 -2.7378 -2.6534 -1.7694 0.8832 0.3654 0.0711 4.6880 2.1792 0.8259 3.3905 0.0292 -0.1877 -4.8519 -1.1500 -0.8837 2.4769
2.3239 3.6652 -2.7686 -1.5682 3.5972 0.0457 -1.8856 -0.3026 7.8865 2.8851 -2.6380 -6.4215 0.4581 -3.2954 4.8230 -0.0812 0.1453 -10.1310 1.5797 2.4130 -10.1387 4.1296 0.9385 1.9411 -7.1341 -1.7937 5.8732 -5.3203 -0.0640 7.2239 5.1256 -0.1226 -1.6973 -5.8818 -3.7761 4.2399 4.8127 -1.0446 -4.4055 -3.3466 0.7887 3.2261 2.7490 3.0675 -7.6116 2.0119 2.1966 3.2425 -4.4541 -1.6342 2.4406 -0.6216 3.4816 1.0953 -2.8742 -1.2602 8.2331 1.9603 -1.5750 -6.2677 -0.3795 -2.7346 3.8279 1.6915 2.9501 0.3797 2.4897 1.1452 -0.9959 3.2527 2.2264 -4.4019 0.9365 -0.5739 -8.1493 -3.2731 -3.0642 6.7404 -0.9437 -0.4221 4.2644 -0.6389 1.2753 2.6832 3.7344 0.7855 -6.2133 -3.1524 -3.3491 4.3310 2.6002 2.2257 -3.1405 0.3386 2.3734 0.7402 1.0880 0.2073 -9.3292 2.7831 1.9103 0.2097 1.3680 1.6536 -8.9592 2.8407 0.9242 1.3618 -5.7249 -1.9023 5.7496 -5.0689 -1.4491 7.0383 4.0436 0.2282 -2.5444 -5.3552 -3.3429 5.4789 4.5261 0.2764 -3.9780 -2.5719 -0.1382 2.4754 2.6041 1.7414 -8.0919 1.7572 1.0729 2.4133 -3.0679 -1.5523 2.7200 -3.5718 -1.6894 6.9647 2.1593 -0.6146 -7.4180 -1.3301 -1.7702 4.5027 3.4175 1.5254 -2.0587 3.4304 0.8821 -4.8302 -3.8560 -3.5607 5.5449 -1.1126 -0.0462 2.8981 0.4083 1.2245 1.7343 2.5009 0.7844 -6.9223 -2.7916 -1.9899 4.1449
0.5513 3.2116 -3.2435 -1.4569 3.0398 1.4579 -4.7167 -5.5784 7.6048 -0.7443 1.8998 -6.9468 -2.0710 1.7013 6.5629 1.7380 0.4600 -11.5614 3.7683 -1.0480 -10.3472 3.9768 1.0350 1.4608 -6.7678 -0.1735 7.3958 -6.4338 -2.7611 8.5623 4.7525 0.8355 -2.3284 -4.7806 0.5099 5.4893 5.1989 0.7565 -5.1068 -0.4010 -2.7373 2.5003 4.7236 -0.0322 -7.8644 2.5374 -1.3423 1.7850 -1.6039 -3.7949 4.6691 -0.2333 2.7125 2.0943 -5.5827 -4.8667 6.7356 0.4755 2.3983 -7.4701 -1.4644 0.4214 6.5880 1.6295 2.5781 0.4865 1.9500 1.2455 -1.5611 2.2233 2.8698 -4.8729 1.2706 1.4646 -9.4965 -4.7893 -3.1409 5.3127 0.0837 -0.0817 4.8830 0.0214 -0.1517 2.4953 2.6047 0.8950 -6.1400 -3.0171 -1.6718 5.8594 1.5931 2.2426 -3.7568 0.5495 1.7828 1.1974 1.8061 0.3193 -10.1504 2.5751 1.7229 -0.3369 3.2535 0.1252 -9.7389 3.1105 0.5447 0.4490 -5.7095 -1.0528 7.0553 -6.1778 -2.4859 7.1923 3.6933 1.0010 -3.2607 -5.2845 -0.8050 5.6222 4.2654 1.6333 -4.5096 0.0239 -2.2587 3.7635 3.3563 -0.0132 -8.2349 1.9775 -0.2548 1.0693 -0.9931 -2.5335 4.8512 -5.1107 -3.4346 6.6729 1.2261 1.2437 -8.0902 -1.3130 -0.0717 5.1641 2.6164 1.9040 -2.6780 3.1840 2.0234 -5.4986 -4.2523 -1.8266 5.1694 0.4157 -0.7881 3.6974 1.1146 0.6074 1.9850 2.6411 1.1311 -7.5432 -2.0037 -1.4105 4.9054
0.4165 -0.5452 -3.6197 4.1327 -1.8070 3.0404 -7.0114 0.0447 4.4993 -0.0529 -1.3737 -7.3474 -4.1138 0.0653 2.8874 1.5315 2.6685 -11.0841 4.2157 2.3861 -10.3319 -0.4906 0.6731 0.2172 -5.1266 -4.7622 7.1256 -6.6081 -2.4897 7.7326 4.0323 2.4002 -2.2058 -2.5236 -3.6304 7.2776 2.8126 3.4634 -4.3211 1.8648 -0.3615 5.2852 4.6888 1.6092 -7.6297 0.9802 2.6183 1.6461 -0.2405 -1.4974 6.7952 2.7808 -1.8726 2.6193 -6.7941 -0.3240 5.8507 0.0321 0.0351 -7.4849 -3.4042 0.8151 3.8601 1.7887 -1.3490 0.4197 2.7280 -0.0187 -1.3906 2.3126 -0.0364 -4.9998 0.8803 1.4424 -9.1960 -4.6062 -0.6744 6.7044 -1.0781 1.2806 3.8591 0.5767 -0.0206 2.7853 2.1258 1.7835 -6.5923 -2.7824 -1.5435 5.4553 1.9152 -0.3540 -3.6722 2.5418 -0.7764 1.6090 1.9250 1.6928 -10.1325 1.5088 -0.3086 -0.6498 3.1659 2.1760 -9.4016 0.8673 0.9487 -0.0868 -4.8004 -3.5247 6.5192 -6.0280 -2.6368 6.4430 3.5680 1.4582 -3.1541 -3.6971 -2.8379 7.2967 3.2502 2.1248 -4.4843 0.5370 0.1227 5.2287 3.5967 1.1309 -8.3938 1.6111 1.4619 1.1333 -0.4417 -1.0005 5.4823 -5.6208 -1.2741 5.9002 1.2369 0.3620 -8.3380 -2.0227 0.2197 4.0032 2.3857 0.6601 -2.6335 2.1786 1.3594 -5.2371 -3.4134 -1.4568 6.7282 0.2664 0.8052 3.9007 1.8089 0.4125 2.2198 2.4491 0.7260 -7.4871 -1.8562 -0.4703 5.3492
1.8825 -1.9378 -0.4669 3.2009 3.6968 4.6496 -3.5125 -2.2560 4.7200 1.1499 -3.0460 -4.4182 -0.7582 1.8349 0.1435 -3.3861 -1.0612 -7.0806 -2.2653 1.5146 -7.2878 4.9861 -0.6290 2.3762 -4.7942 -0.2030 -0.6612 -5.3557 -0.4410 2.1315 4.1208 2.3010 -1.6489 -2.0954 -0.8294 -1.3565 2.0278 2.7400 -3.5145 0.6955 -1.2231 5.6078 -0.7150 2.3204 -5.0323 4.0876 0.8477 4.4817 -0.1792 -2.7654 3.4031 2.1972 3.7304 3.6488 -4.1313 -2.6880 3.5172 -0.0753 -2.4401 -4.0348 -1.5740 1.4329 1.2324 3.4709 2.4152 1.9022 2.5641 0.8349 0.3371 0.7833 -0.1868 -1.6634 -1.7641 -1.6306 -5.4975 -2.6130 -2.8216 1.6881 -0.9430 1.3387 3.5222 1.1857 1.3268 4.6769 0.9797 0.2491 -3.9900 -0.7856 -1.3435 1.0252 2.0553 -0.7790 -1.4164 2.2531 2.4795 2.8044 -2.0852 -0.7757 -6.5923 3.6737 1.0510 1.2589 -2.0269 0.6799 -6.1665 3.6888 -0.0761 2.2774 -3.8346 -0.6204 0.2970 -4.5276 -1.3514 1.4282 3.2083 1.2841 -2.0107 -2.8202 -1.5274 -0.3627 1.8752 1.8737 -2.4063 -0.2072 -0.7216 4.6431 -0.6744 1.0106 -5.5730 3.1091 0.2429 3.6483 0.0268 -1.3675 3.2963 -3.4999 -1.9391 2.3711 -0.4285 -1.3918 -5.0616 -0.7029 0.7418 2.2491 3.0566 0.2498 -0.9065 0.8382 0.7998 -2.6892 -1.8917 -2.1580 0.6558 -0.1221 0.7919 4.5515 1.9190 1.1668 3.4811 -0.3256 0.0100 -4.4907 -0.9412 -0.7547 2.3029
-0.9516 1.5545 -3.6243 -1.0587 -0.9364 -1.0256 -4.8492 1.5977 6.2684 -0.3520 1.2983 -8.2615 -0.7402 1.1243 7.0027 4.3012 0.7475 -11.3338 5.8222 -0.1118 -9.1332 3.5298 0.2427 -0.1874 -5.9428 -4.0883 7.1680 -6.5830 -1.5249 6.1198 3.5858 2.8450 -2.3744 -3.2034 -4.4454 7.8785 4.1211 3.3359 -5.0914 0.0033 -3.4920 3.2317 5.1466 1.0665 -6.6374 2.2964 -1.3102 1.7669 -1.7681 -4.1404 5.2787 -1.6460 0.0774 -0.2287 -5.2238 0.7425 7.3358 0.7535 2.1282 -8.5776 -0.4130 0.0281 6.1660 0.1394 1.8700 -0.0637 1.4009 0.8936 -1.9290 0.5729 2.5218 -5.1468 2.6314 1.4963 -9.8712 -3.5811 -0.7884 8.0939 -1.4851 -0.2704 4.0102 -0.5033 -1.1869 2.0707 2.3492 1.3782 -6.2167 -1.8395 -2.1518 7.0985 0.4934 1.5919 -4.0671 -0.6108 0.7583 0.6337 3.7178 0.5923 -10.0488 1.5056 1.4924 -0.6062 4.7802 0.8404 -8.9928 2.2890 0.6338 0.3744 -4.9740 -3.0682 6.9922 -5.6312 -1.7136 7.1541 2.8280 2.2199 -3.4001 -3.8875 -3.2181 8.0308 2.8115 3.1451 -4.5951 -0.4374 -2.4913 4.1255 4.1777 0.7161 -7.6093 1.5038 -0.5765 0.8462 -1.7708 -2.8338 4.7443 -4.5894 -0.6092 7.1029 1.9947 1.2685 -8.6154 -1.6570 -0.4043 5.4159 1.4097 1.9736 -2.9122 1.8943 2.6154 -5.6786 -2.9303 -2.0459 7.9950 -0.4476 -1.1055 3.4912 0.2413 -0.1011 1.5432 2.9559 1.6095 -7.4829 -2.1799 -1.7912 5.7721
4.2434 -1.4351 -1.9044 0.8648 4.6430 1.3147 -2.8119 -5.0773 4.6686 2.4527 -1.7785 -7.5096 -1.1835 -2.2382 4.9515 -2.6160 -1.2387 -5.3363 -2.1739 1.3877 -4.4546 5.3288 0.1648 1.9234 -7.2329 -1.4170 5.8721 -5.4547 -3.5649 6.5207 5.3765 3.3982 -2.3505 -6.1937 0.3596 3.8937 4.4166 2.7049 -5.1341 -1.3512 2.3311 0.5494 0.4721 1.9348 -3.5354 3.2524 1.1864 3.3356 -3.8369 1.3652 1.5709 1.6597 3.7024 2.0192 -4.1376 -4.8152 4.2427 1.9660 -1.9136 -6.1837 -1.3136 -2.3686 3.5453 3.6241 2.8708 0.7484 3.8555 1.2700 -1.0448 4.3091 -0.1998 -3.9843 -0.3064 -1.5205 -5.6193 -4.5510 -2.7986 3.0651 -0.4496 -1.0006 1.8084 0.5776 1.1176 2.1002 2.5107 0.7638 -5.2072 -3.6257 -0.6576 3.5732 4.8551 -0.2930 -2.6751 2.1446 2.6672 1.0334 -1.3777 -0.5828 -5.5684 4.3491 1.6214 0.2803 -1.1342 0.4220 -4.4553 4.1403 0.4394 1.2095 -5.9706 -1.6048 5.2531 -5.6558 -3.0843 5.2019 5.1417 2.1390 -2.9455 -6.0116 -1.0439 3.8484 3.9542 2.2049 -3.8876 -1.5695 0.9853 0.9305 0.1927 1.1226 -4.6635 2.9303 0.5127 2.1273 -2.5833 0.9105 2.0524 -4.4057 -3.3335 4.3784 0.9070 -0.8594 -5.9651 -1.3139 -0.9870 2.9438 4.9991 1.0289 -1.9174 3.3284 0.8251 -4.0529 -4.7470 -1.3841 3.0813 -0.2567 0.3092 1.2845 1.8063 1.2356 1.4135 1.3017 0.1041 -4.8559 -2.6959 -0.5314 2.5094
2.2535 -0.2038 -3.0012 4.8866 0.3133 2.5428 -6.3959 -1.5801 3.2521 -0.6643 -0.5245 -7.1374 -2.2008 -4.6175 4.5370 3.0754 1.3785 -11.0331 5.1231 -0.0165 -9.6586 -0.5368 1.3437 0.6027 -5.5906 0.4215 7.1699 -7.7826 -1.2745 6.7605 0.0276 4.0350 -3.3406 -4.1262 -2.6305 8.4342 0.3577 3.2728 -5.8270 1.2819 0.8003 5.2919 4.8735 0.0624 -6.8070 1.7885 -1.4193 0.2994 -1.4229 0.6492 6.2304 3.9860 0.3054 1.4469 -6.0058 -1.0108 4.4918 0.0394 0.6490 -7.5101 -1.9298 -3.4774 3.7389 2.3177 2.0639 0.8498 1.3324 2.5179 -1.2949 3.1733 1.5802 -4.3038 1.6629 1.0644 -9.1990 -4.5464 -2.5826 5.6120 -0.0782 -2.0498 3.4557 1.9645 -0.9102 3.1165 2.6378 1.7084 -6.6067 -2.3507 -2.0961 6.3128 2.5891 1.2693 -3.0454 2.7198 1.0166 1.8691 2.8131 0.5832 -9.8865 1.6741 1.4451 -0.3774 4.0395 0.6081 -8.9896 0.4806 0.5685 -0.0172 -5.5927 -0.8938 7.7076 -6.4752 -1.8022 6.8691 1.2564 3.3626 -3.5533 -4.1660 -1.4075 7.7090 1.5179 3.1313 -5.0308 0.2866 -0.0131 4.6929 3.7792 -0.1197 -7.6879 0.9046 -0.5230 0.9540 -0.6903 -0.4672 5.7534 -5.8885 -2.1256 5.5069 1.3791 0.2420 -8.0724 -0.9251 -2.6037 4.4604 1.3606 2.1095 -2.6947 2.1561 1.7816 -5.2758 -3.6975 -1.6468 6.2779 0.9254 -1.2263 4.0360 1.5619 0.0850 2.1876 2.4943 0.3588 -7.0390 -1.6536 -1.5051 5.2203
1.2190 4.7163 -3.3122 2.5749 2.0157 3.7811 -5.9099 0.9773 3.9475 4.1644 1.8074 -9.1120 -2.3644 -4.6173 2.0516 1.1231 -2.6313 -7.3885 -0.9811 -0.9573 -6.5697 0.6180 1.1229 -1.8999 -5.4206 -0.9983 7.8958 -7.7964 -1.0835 6.4393 5.1134 2.0857 -1.9371 -4.8780 -4.1890 6.2910 5.1554 0.9648 -4.5702 1.5029 -0.5854 4.9841 -0.2039 1.5806 -5.5136 -0.3625 -0.4703 0.1271 -1.1354 -0.4926 6.1447 3.3131 1.0165 3.0951 -5.5894 0.2438 5.1173 4.0479 1.0158 -7.9409 -2.6104 -3.2603 2.3826 2.8301 2.1297 0.9196 2.4588 3.2476 -1.1392 2.6180 3.5836 -4.8281 2.5441 -0.7704 -7.4905 -4.7949 -1.9624 4.5223 -0.6259 -1.9649 2.3563 1.6101 -1.1742 2.1726 2.5430 1.2757 -5.4321 -2.6858 -2.7750 5.2402 2.0183 3.4523 -3.5423 2.7772 0.8326 1.6931 1.1945 -1.2228 -7.5462 2.4042 1.9334 -0.5189 0.3743 -0.5538 -6.4559 1.0004 1.3563 -0.5501 -5.7960 -2.1900 7.2190 -6.6886 -1.8632 6.0337 3.9799 2.0721 -2.7937 -4.5334 -2.8875 6.7493 4.4678 2.1534 -4.2232 0.3020 -0.7460 4.2449 0.4562 0.9529 -6.5980 0.9646 0.0262 0.1846 -0.7135 -1.4136 5.1529 -5.9461 -1.2081 4.8828 2.5995 0.6223 -7.7790 -1.4456 -2.7582 3.2024 3.0731 3.2483 -2.4621 3.3487 2.4243 -5.2065 -3.8834 -2.1040 5.6138 0.5703 -1.6137 3.0292 1.4185 0.1403 1.6393 1.8954 1.4283 -6.6923 -1.9158 -1.9330 4.3890
-0.0940 1.3154 -3.8326 3.2307 0.6715 3.2050 -6.2713 0.7603 6.1029 0.1896 -1.1199 -7.4300 -1.9556 -4.0200 3.7074 2.2424 1.1356 -11.8086 4.7966 1.7044 -10.7956 0.6818 2.9739 0.2534 -5.4399 -4.6760 7.3296 -6.8257 -2.3821 6.4095 4.5105 0.1338 -2.4230 -2.6147 -4.3409 7.5808 5.4132 1.2783 -4.8503 -0.5917 2.1093 4.4557 4.8768 2.4626 -8.0424 -0.8835 -0.2984 0.1761 -1.6608 1.0175 6.8644 2.7711 -0.4765 2.5117 -5.8757 0.1931 7.3410 0.5343 0.2532 -7.5162 -2.7736 -3.0229 4.2988 2.4892 0.6928 0.3119 2.1484 1.6266 -1.9307 1.8640 2.1500 -4.9203 1.4554 0.8396 -9.6227 -3.8465 -0.8824 7.9242 -2.2724 -0.9263 3.2906 -0.0562 -0.2033 2.9399 3.1615 0.8117 -6.4009 -1.8917 -1.8440 6.8064 1.3433 1.0389 -4.1999 1.8021 -0.0826 1.4210 2.5953 0.8015 -10.4753 1.5072 0.9681 -0.8084 3.6422 1.7808 -9.9746 0.2877 1.7303 -0.3140 -4.7803 -3.4598 7.0180 -5.7118 -2.2981 7.2838 3.6314 0.4104 -3.4959 -3.5496 -3.3232 7.8807 4.1326 1.5767 -4.3218 -1.5149 1.0369 4.4797 4.0271 1.4468 -8.5483 -0.4147 0.9100 0.7593 -1.3335 0.2201 5.7389 -4.9756 -0.9887 7.0595 1.8044 0.3698 -8.3248 -1.9599 -1.7573 4.4074 2.2105 0.6461 -3.0101 3.1606 1.8759 -5.4531 -2.9267 -1.9489 7.7658 -1.3915 0.1939 3.2232 0.5325 0.5987 1.9210 2.7928 1.3264 -7.6737 -2.2235 -1.0098 5.7054
3.4767 -1.8220 -1.6944 2.5726 4.5827 3.0338 -5.6497 1.2356 0.8364 -0.8554 -1.3792 -7.0229 -1.2904 2.7517 1.7292 -4.5844 -1.1768 -3.6030 -3.8550 1.0270 -2.0172 5.3031 -1.0068 1.3281 -4.1078 -3.7626 -1.1356 -5.6979 -1.4307 -0.8965 4.5786 2.7995 -2.3371 -1.6735 -3.7204 0.3745 2.5733 2.5740 -4.4664 1.9003 -1.7396 4.9286 -1.0562 1.4131 -1.6608 4.8417 0.2551 3.7411 -0.0743 -2.9552 3.2808 3.0939 3.3869 3.5929 -5.6297 0.0250 1.5762 -0.3735 -1.3118 -5.6896 -1.7815 1.5350 2.2672 4.2382 2.3082 1.6703 3.2937 1.2522 -0.2637 2.2049 -0.3623 -3.1095 -2.4161 -1.2483 -4.4754 -3.8111 -1.3610 2.2200 -0.2067 1.1585 4.0016 2.1674 0.9602 4.4150 0.4625 0.9537 -4.0957 -1.5253 -1.2300 1.5442 2.7987 -0.4830 -1.8229 3.0010 2.3000 2.5508 -3.4137 -0.4271 -3.8782 4.3366 1.1115 0.7443 -2.8768 0.1758 -2.5919 4.1444 -0.2077 1.4729 -3.7080 -2.6556 -0.3446 -4.9325 -1.9376 0.1804 3.8001 1.6626 -2.6464 -2.8853 -3.1465 0.8253 2.4281 2.0609 -3.1520 0.7225 -1.0794 4.5165 -1.6300 0.9854 -2.8850 3.7337 -0.1023 2.9282 0.2495 -1.5791 3.1710 -4.4714 -0.8097 1.0839 -1.3164 -0.4445 -4.8891 -0.6059 0.6937 2.7120 3.7617 0.6564 -1.5078 1.4903 0.8648 -3.1296 -2.6282 -2.0678 1.8625 0.8711 0.4248 4.5476 2.6211 0.9207 3.0741 -0.6312 0.1518 -3.6696 -0.9775 -0.7799 2.7755
1.6199 3.1276 -3.9988 3.2984 -2.1144 2.1723 -7.3926 0.3405 7.8198 -1.0997 2.4876 -8.2431 -4.5389 0.2781 2.6797 3.4348 2.6389 -10.9060 4.3977 0.0711 -10.2776 1.1373 3.3515 -0.2896 -4.3612 -4.4428 8.9026 -6.2920 -2.4200 9.4882 5.6220 1.5863 -2.8682 -3.8248 -4.6638 6.0902 5.3872 0.8102 -5.5486 1.2185 -1.6169 4.7626 3.7853 -0.8989 -7.6858 -0.7075 1.4024 0.6588 -1.0152 -2.9468 5.8933 2.0367 -1.8990 1.5606 -6.0151 0.0752 8.0288 0.1348 2.4071 -7.5491 -3.8628 0.5326 3.9004 1.6505 -0.3235 -0.3284 3.1638 1.2596 -1.3002 1.9245 0.7805 -4.4910 1.8925 2.4775 -9.1486 -4.6656 -1.1249 6.4916 -1.5015 0.7279 4.0748 -0.0136 -0.3452 2.5855 2.7131 1.5416 -6.6132 -3.5405 -2.2505 4.6946 1.9550 1.7557 -3.4638 1.9578 -0.4516 1.1476 2.6984 1.7543 -10.0751 1.7994 1.1083 -0.8196 3.6685 0.8454 -9.3388 1.5599 2.1271 0.2874 -4.9238 -3.5916 7.9180 -5.2551 -2.2505 8.5350 4.3925 1.0803 -3.3678 -3.9446 -3.4278 6.7762 4.2966 1.3734 -4.8436 -0.0394 -0.9899 4.9324 2.8977 -0.0793 -8.4208 0.5331 1.6557 1.3029 -1.1501 -2.0137 4.8353 -5.7045 -1.2860 7.4514 1.0908 1.5817 -8.3786 -2.5521 -0.2157 3.8745 3.2463 1.7775 -2.6582 3.0026 0.8363 -5.4158 -4.4181 -2.3524 5.8130 -0.2193 0.1221 3.9130 1.0419 0.4030 2.0100 1.9743 0.7020 -7.4978 -2.4940 -1.3136 4.9275
1.8615 -0.6621 -4.3964 2.5854 2.7444 2.7939 -5.7235 1.5313 5.7628 5.5914 -1.5265 -6.7877 -3.6505 -4.1304 3.0737 2.4439 0.3335 -11.0824 3.2241 2.9969 -10.6295 -0.5389 -0.6451 -1.7901 -4.2979 -0.4907 9.4160 -6.9383 -0.1557 8.6235 0.0276 3.3177 -3.3513 -4.7288 -3.7599 7.9428 1.4012 3.8957 -5.7299 1.5130 -1.1440 4.8066 3.6838 3.7165 -7.9178 -1.7798 -0.4251 0.7017 -0.6797 -0.8272 6.9119 2.3693 1.3488 2.6606 -5.0017 0.6985 6.6550 4.2588 -1.0791 -6.9724 -3.1225 -2.8184 3.1875 2.3518 0.3758 0.3761 1.4798 1.4822 -1.5672 3.3884 1.2141 -4.3994 3.2797 -0.2575 -8.9742 -4.7709 -1.6328 6.0570 -0.7313 -2.6135 3.2274 0.5606 -0.9026 2.2681 2.7313 1.3485 -6.6902 -2.6936 -2.7552 6.2573 2.4468 0.4959 -3.6227 1.5350 1.1196 1.4243 3.3602 0.6711 -10.0519 1.5705 0.1822 -0.9158 3.0577 2.0775 -9.5622 0.2297 -0.4781 -0.6145 -5.0318 -1.6068 8.9319 -6.1397 -1.1432 8.0008 1.3004 2.7454 -3.6142 -4.0714 -2.5262 8.2010 1.4941 2.6283 -5.1059 0.1292 -0.8622 4.6689 4.0067 2.4416 -8.4394 -0.5627 0.2566 0.4509 -0.6039 -1.6342 5.7506 -5.6406 -0.6732 6.6458 4.2712 0.0358 -7.9914 -1.8721 -2.8918 4.0289 1.3494 1.3537 -3.0119 2.8364 2.0124 -5.4392 -3.6367 -1.8956 6.8837 -0.3732 -1.2395 3.2803 0.2397 0.3830 1.7423 3.9973 1.3893 -7.3430 -1.9865 -2.0199 5.2694
4.3369 0.7807 -3.9952 -0.9483 2.8533 1.7787 -3.7280 -2.2098 10.5227 5.6980 4.0301 -6.4154 -2.7255 2.5983 5.6102 5.4492 0.8046 -10.7203 2.7048 1.1267 -11.2641 3.7084 -0.4885 0.7974 -5.4089 -4.1469 7.1558 -6.7174 -3.1403 9.3986 0.4698 -1.3796 -3.5686 -6.6801 -1.1314 5.6332 0.4165 -0.5957 -6.2812 -0.7572 -2.7218 2.5349 1.0272 1.3967 -8.9607 1.6518 -2.3348 1.0458 -2.5565 -3.1800 4.6931 0.3328 2.3106 2.0502 -3.9257 -2.4136 9.1356 5.0301 2.7852 -6.4837 -1.9806 1.4577 6.0120 2.0095 1.7871 0.3241 1.4973 0.8640 -1.8498 2.4179 2.0161 -4.8055 5.1132 1.7180 -8.5909 -4.6458 -0.6998 7.6002 -0.5432 0.3503 4.4854 0.8499 -0.3866 2.7253 2.8753 0.9909 -6.9096 -3.9242 -0.6485 5.3551 2.9759 1.3521 -3.6929 0.7012 1.3451 0.9482 4.6274 1.6495 -9.9284 2.4729 0.8410 -0.7653 3.2077 1.1103 -9.9370 2.6779 -0.5500 -0.1850 -6.2640 -3.0210 7.0259 -6.3423 -2.2725 8.3452 0.9337 -0.1013 -3.9762 -5.7084 -2.1230 5.9383 1.4372 -0.1693 -5.3973 -0.8292 -1.8782 3.6720 2.3195 1.9693 -9.0604 1.4036 -1.0863 0.4339 -2.2595 -1.8948 4.1671 -5.0635 -1.5254 8.6836 4.3608 2.6628 -7.8328 -1.9121 0.4951 4.8463 2.0711 0.3150 -3.0647 1.9516 1.1786 -5.8518 -4.4214 -1.4559 6.4101 -0.4482 -0.4529 3.3098 0.6638 -0.1269 1.3486 2.9169 2.1901 -7.6805 -2.5200 -0.8444 5.2301
-0.1028 2.2764 -3.4943 -3.2633 0.0363 0.0922 -5.8403 0.3160 5.2724 -0.2197 3.0280 -7.8543 -1.2081 2.1583 6.0676 3.6077 2.8618 -11.7311 4.8119 0.4931 -10.8094 3.2651 -0.3516 0.1080 -4.2763 -4.6132 8.0147 -5.7932 -3.1447 6.0938 4.0658 -0.2144 -2.5976 -1.9018 -3.2685 8.8796 4.9098 0.4894 -5.1771 -2.3357 -3.1230 3.9493 4.9162 0.2080 -7.9885 1.7944 -1.5752 2.1268 0.3666 -1.9009 6.0144 -2.2524 0.8094 0.7182 -6.0163 -0.2848 6.5457 1.1513 3.3771 -7.7588 -0.7344 0.9498 5.4968 -0.0596 1.3527 -0.2788 1.2787 0.1714 -1.9531 1.8412 2.4773 -4.8138 2.5058 3.0861 -9.6775 -4.0962 -0.4691 7.9282 -2.0429 -0.3036 3.8977 -1.0141 -1.4062 2.0755 2.5760 1.0918 -6.6004 -1.7491 -0.8663 7.5154 1.1044 1.5377 -4.0253 -0.9119 0.2451 0.3122 3.1161 2.1769 -10.5884 1.3278 0.8835 -0.6814 4.2695 1.4534 -9.9173 1.9821 0.1206 0.4591 -3.9054 -3.3262 7.5491 -5.1496 -2.5361 7.2024 3.1392 0.2396 -3.5707 -3.1271 -2.6088 8.6265 3.8696 1.1725 -4.5104 -1.0801 -2.5105 4.2161 3.7960 0.7566 -8.6585 1.1238 -0.9976 1.0161 -0.9673 -2.2812 5.7114 -4.7857 -1.1036 6.8554 1.9479 2.3837 -8.5687 -1.9202 0.0391 5.2710 1.9993 1.0002 -2.9142 2.9494 1.8832 -5.4818 -2.9028 -1.1489 8.2869 -0.9991 -1.1807 3.4785 -0.1964 -0.4080 1.4813 3.0721 1.7459 -7.7628 -1.9356 -1.1981 6.1520
1.6736 -0.7794 -3.7760 3.4955 0.4154 3.5156 -6.2225 -4.4639 4.7541 -0.0789 2.4320 -7.1689 0.3013 -2.8930 6.4506 3.7716 1.5463 -11.4140 4.1027 -1.0795 -10.4649 -0.6330 0.5093 -0.8563 -6.7210 -0.8693 7.2464 -7.4129 -3.4917 7.8246 3.7465 3.4759 -2.5962 -3.8061 -1.6476 9.2339 3.0848 3.5782 -5.1597 -2.0166 2.1504 3.2761 3.7880 -1.4247 -7.6508 -0.5965 2.8599 0.6473 -3.7901 0.9312 5.1307 2.4910 -0.3067 2.8216 -5.8988 -3.2357 5.3848 1.2076 2.7698 -7.6609 -0.6411 -2.8131 5.3937 2.0532 -0.4221 0.3823 2.9365 1.0241 -1.3683 3.6730 0.0418 -4.8104 2.6188 2.0971 -9.4501 -3.9240 -3.0568 6.7685 -0.5825 -1.1859 3.6704 -0.2967 0.3364 1.9305 3.5461 1.2333 -6.8574 -2.5635 -1.1185 6.7301 3.0046 -0.0943 -3.5603 2.1045 0.4850 1.5973 2.9972 1.0467 -10.3349 1.7444 0.3421 -0.8923 3.8024 -0.0043 -9.5891 0.5554 1.2789 -0.7580 -5.9632 -1.5970 8.2036 -6.0611 -3.0882 7.9261 3.8670 2.2416 -3.2767 -4.5213 -1.1321 8.1194 3.8280 2.4319 -4.7864 -2.0084 0.7587 3.5489 3.0012 -0.5308 -8.4163 0.5861 2.0897 0.5308 -2.4353 0.5391 4.9843 -5.2591 -3.5459 6.7204 1.7462 1.5953 -8.4420 -0.8517 -1.3553 5.0577 2.8364 1.2280 -2.8092 3.2299 1.2191 -5.4745 -3.8852 -1.6321 6.8304 -0.6147 0.1960 3.3102 0.7937 1.2399 1.7793 2.4745 0.5977 -7.5480 -2.2778 -0.9229 5.3522
2.3792 3.1429 -1.3575 1.6619 4.3523 2.2588 -0.7252 -1.4328 0.0186 -0.5253 3.4328 -3.6651 -3.6756 1.1713 0.8830 -2.1210 1.5930 -8.6181 -1.1070 -0.9926 -8.2544 2.7473 -2.0019 1.3454 -1.7056 -4.6354 4.7301 -0.1145 -3.6553 2.5805 3.8694 -1.5054 -1.6668 -4.0495 -3.0780 5.2524 3.2547 -1.4290 -4.4303 -0.4325 -0.4982 6.1531 1.2999 -1.1594 -6.7326 1.6987 -1.3955 3.9030 -3.4385 1.0481 5.5153 2.3336 3.3953 3.0630 -1.5194 -2.5761 0.2881 0.1901 3.2346 -4.8731 -3.4176 1.5230 2.2334 3.3696 1.6803 1.6203 2.2439 0.4182 -0.1280 2.7629 2.0350 -3.4144 -0.8437 2.3354 -6.8015 -3.4364 -2.4054 1.6852 -1.2525 1.4706 3.2301 0.8302 1.3571 4.3616 1.2235 0.5200 -4.3938 -4.0361 -0.9247 3.4920 2.2425 1.8351 -2.1021 2.1425 2.0320 2.4414 -1.4835 1.2182 -7.4072 3.2331 0.3327 0.9368 -0.4585 0.1400 -7.6993 2.9265 -0.7420 1.9682 -2.0499 -3.4870 3.9743 -1.5333 -3.6371 2.5583 2.9650 -0.5616 -2.2228 -3.5529 -3.3280 3.9523 3.3949 -0.2623 -3.6410 -1.1369 0.4786 5.4057 0.2419 -0.2700 -6.4232 1.7436 -0.4263 2.8644 -2.5538 -0.0149 5.1904 -2.0128 -2.4732 1.7094 -0.3233 1.9730 -5.5260 -2.3014 0.6410 2.7360 2.9510 0.6991 -1.3753 2.5918 0.8786 -4.2355 -3.9920 -2.2472 2.9833 -0.4084 0.7167 4.0907 1.8727 0.9599 3.4828 0.7823 0.9371 -5.6817 -2.7456 -0.4126 3.7419
1.8064 2.9982 -1.1206 3.7855 3.6997 4.8051 -0.4111 -2.7220 0.4676 0.6968 -2.9406 -5.3364 -3.3227 -0.6370 -0.6944 -2.6465 0.4785 -7.9803 -0.7980 2.5770 -8.2170 3.0814 -1.6403 2.2553 -2.0309 -2.9078 5.9834 -0.1763 -3.1530 3.8316 4.3460 -1.1497 -1.1441 -4.4217 -1.4875 5.2973 3.2196 -1.7305 -3.7142 -1.1463 1.6867 4.8891 0.9782 2.8812 -5.9927 1.6755 -0.5176 4.5422 -3.9470 2.1617 2.9458 3.6525 2.3757 4.3131 -1.2647 -3.5984 1.1869 0.0303 -1.7849 -4.8564 -3.3600 0.4494 0.2168 3.4393 2.0649 1.8484 2.3257 0.4578 0.3899 2.1280 1.6675 -3.0544 -1.2863 -0.5205 -6.3579 -3.3629 -2.8775 2.0543 -1.3834 1.2093 1.3087 0.4821 2.0220 2.4656 2.0076 0.3943 -5.0394 -4.2284 -0.7015 2.6414 1.8511 1.5879 -1.6633 2.7073 2.4047 3.1366 -1.3239 0.3555 -7.4802 3.3536 0.6103 1.4110 -0.8158 1.7290 -7.0794 3.0448 -0.2697 2.6083 -2.2781 -2.3965 4.6846 -1.5799 -3.2612 3.6557 3.1379 -0.5806 -1.6261 -3.7667 -2.3847 4.4224 3.2280 -0.4382 -3.1308 -1.6727 1.8875 3.5868 0.5873 1.6250 -6.5212 1.7139 0.0692 3.2508 -3.0447 1.2337 3.5309 -1.9562 -2.7971 2.2619 0.0606 -0.7351 -5.9430 -2.3626 0.1778 1.3170 2.8867 0.7457 -0.9255 2.0398 0.3645 -3.6200 -4.0883 -2.0723 2.9734 -0.7188 1.2737 2.5675 1.4662 1.5680 3.3947 0.6526 0.5716 -5.4341 -2.9907 -0.0238 2.6875
1.2479 -0.8880 -4.5978 3.8556 1.7891 2.4692 -6.5061 -4.6346 6.3304 3.5559 -2.8059 -8.4792 -2.0266 -4.4017 5.0524 2.3420 1.4052 -11.3322 4.1496 3.2502 -10.2088 -0.9309 -0.0983 -1.5304 -6.3287 0.8277 8.3598 -7.6548 -1.6166 7.7031 0.5294 3.2932 -3.2777 -3.5131 0.4546 8.7970 1.8714 3.6499 -5.7170 1.0258 0.9482 4.6965 4.6253 2.9815 -7.4187 -1.6401 0.4689 1.1218 -1.5907 1.3487 6.2430 3.1161 0.5816 2.3917 -6.2823 -3.3424 5.7943 3.0445 -1.6589 -7.8204 -2.0545 -3.1250 4.4352 2.3966 -0.2719 0.1858 1.7493 1.1267 -1.6490 3.2323 0.4884 -4.6112 2.6671 -0.0086 -9.4911 -4.3122 -2.1324 6.3335 0.0007 -1.9061 4.3776 0.5732 -0.7432 2.4268 2.6269 1.0142 -6.8645 -2.1789 -1.3297 7.1180 2.1750 0.0021 -3.8048 2.0865 0.7246 1.2954 3.2240 1.0366 -10.2823 1.4329 -0.1291 -0.9817 3.5102 2.2574 -9.4232 0.0007 -0.2504 -0.4763 -5.6526 -0.4017 8.1730 -6.3951 -1.2524 7.1643 1.6272 2.4660 -3.6331 -4.2287 -0.1416 7.7234 1.7147 2.3686 -5.1339 -0.2906 0.4822 4.4393 4.4168 1.8730 -8.2724 -0.3170 0.6958 0.6650 -0.9132 0.1917 5.7903 -5.5902 -2.5006 6.8409 3.6054 -0.4338 -8.5027 -1.1159 -2.2212 5.1968 1.3992 1.0794 -3.0616 2.8748 1.4926 -5.5517 -3.5736 -1.4557 7.3413 -0.2642 -0.7682 3.5689 0.6668 0.5402 1.8187 3.8603 0.6873 -7.4998 -1.8439 -1.0074 5.7683
2.9061 -1.2178 -3.4044 3.0626 2.6207 2.8277 -6.1699 -1.3329 4.0223 0.2611 1.5566 -10.1043 -3.5067 -3.3245 3.3389 5.5038 3.5196 -8.8527 6.2571 0.9240 -8.0636 -0.6722 -0.6637 -1.3782 -5.2074 -1.2512 10.0214 -6.9865 -0.2901 7.9791 -0.4807 2.3750 -3.2391 -2.4851 -1.3887 9.1012 -0.2313 2.5316 -6.0784 1.8640 -0.2799 4.9472 4.2116 -0.6365 -6.8534 -1.4506 0.1760 1.1453 -0.2057 -0.3940 7.0636 3.2006 1.3240 2.2713 -6.6125 -1.5351 5.3550 0.9613 2.2975 -9.1180 -2.6758 -2.1749 3.3406 2.6664 0.1821 0.1422 1.6651 1.0586 -1.8790 1.6460 -0.5027 -5.2568 3.2574 2.8563 -8.8421 -4.4288 -2.0798 6.1077 -0.2776 -2.2380 3.4447 1.0501 -0.6072 2.4086 2.2051 1.3326 -6.6514 -2.1363 -2.3779 6.5006 2.2548 -0.0197 -4.0566 2.1475 1.1450 1.2020 4.6100 2.4218 -8.9586 1.6563 -0.0784 -0.9655 4.9401 1.4144 -7.8698 0.3014 -0.4522 -0.3760 -4.8045 -0.9657 8.6930 -5.9581 -1.2372 7.7496 0.6247 1.8271 -3.9438 -3.6009 -1.8167 8.3388 0.1517 1.4014 -5.3184 0.4607 -0.3273 4.7729 3.9670 0.2564 -7.9230 -0.1779 0.5532 0.6499 -0.1337 -1.1712 5.8819 -5.4964 -1.1592 6.3043 2.3690 1.7591 -9.0341 -1.4645 -2.4604 4.1993 1.1848 0.6327 -3.1880 1.1649 0.5602 -6.0703 -3.2992 -1.6544 6.8623 0.0700 -0.8588 3.3987 0.8250 0.6600 1.7941 2.5272 0.7413 -7.9096 -1.5109 -1.6311 5.4710
-0.7502 2.3132 -4.3526 -2.4025 0.0975 -1.6678 -4.4910 1.4027 6.9263 0.2753 1.5100 -8.3101 -0.0920 1.2841 5.7366 4.9338 1.0968 -11.2635 6.4753 0.1669 -9.0980 1.9601 -1.2930 -0.8358 -4.6210 -4.2398 8.7249 -5.9477 -1.8981 7.7952 3.4458 1.7425 -1.8767 -1.8137 -4.2748 8.1978 4.8226 2.4488 -4.2012 -3.8095 -2.4562 3.3522 5.8126 1.2762 -6.5774 0.0515 -2.3123 0.8898 -2.3359 -4.0354 5.1291 -2.5822 1.0494 -0.6331 -4.5212 0.6150 8.1053 1.3988 2.3648 -8.4420 -0.2520 0.0340 5.0856 -0.1756 1.7841 -0.3172 0.6904 0.6931 -2.3484 1.3575 2.9387 -5.2198 3.2771 1.7910 -9.7625 -2.5395 -0.6687 8.3200 -2.3238 -0.1180 3.8558 -2.2008 -0.7837 1.5765 2.9750 1.4605 -6.1308 -1.1766 -1.9841 6.8051 0.7134 1.9381 -4.4328 -1.3806 1.0938 0.2815 4.3592 0.8902 -9.9806 0.8767 0.8715 -0.9195 5.4247 1.1043 -8.9215 1.0758 -0.4228 -0.1544 -3.9511 -3.1768 8.0683 -4.6539 -1.8710 8.3756 2.8358 1.6056 -3.1526 -2.5255 -3.1068 8.5564 3.4317 2.6570 -4.0605 -2.3919 -2.4692 3.3027 4.8351 0.9269 -7.5405 -0.2278 -1.1217 0.1723 -1.8131 -2.8076 4.6613 -3.8648 -0.7088 7.8002 2.6385 1.5039 -8.5213 -1.7202 -0.3282 5.1261 1.3304 1.8105 -3.0439 2.7456 2.6673 -5.4112 -1.8246 -1.8632 8.0551 -1.8810 -1.0957 2.9222 -1.0447 -0.1751 1.0316 3.5952 1.7854 -7.3696 -2.0233 -1.7131 5.6920
3.8475 3.2856 -2.8729 0.1240 4.0134 1.1764 -1.6132 -0.3136 8.7962 4.8571 4.3036 -7.5075 -0.4541 -4.0944 4.7719 4.4385 1.2967 -11.5836 2.3005 -0.3782 -10.8638 -1.0789 0.6793 -1.5268 -7.0787 -2.0803 7.3039 -5.3245 -0.1714 8.4749 1.4327 -0.9883 -2.6625 -5.8097 -3.9255 5.5389 2.3209 -1.5102 -5.2818 -3.1067 1.0258 4.5140 2.1931 -1.0912 -8.1135 -0.7065 -0.8592 0.6575 -4.7036 -1.2008 3.9792 0.8657 3.3421 2.1804 -2.6887 -1.1249 9.2397 4.8905 2.9199 -7.1957 -0.5803 -2.8232 4.1581 1.9216 1.8851 0.3970 1.4285 1.8989 -1.9667 4.1547 1.5366 -4.4303 4.6567 1.9540 -9.3471 -3.0330 -2.9356 7.7431 -0.7258 -0.5264 4.8788 -0.5604 1.1274 3.1785 2.7901 1.0675 -6.3193 -3.1791 -3.2164 5.3257 3.1581 2.1778 -3.6376 1.2199 1.9427 1.7374 3.7718 1.4432 -10.3386 1.1434 1.2057 -0.7159 3.2340 0.0920 -9.9048 -0.3490 1.2508 -0.4527 -5.6867 -2.0456 7.0364 -4.9498 -1.5212 8.2500 1.8697 0.0561 -3.5221 -5.2018 -3.4397 6.7200 2.9066 -0.5230 -4.4572 -2.6884 0.0523 3.5686 2.5516 0.2050 -8.5571 -0.7266 0.5523 0.8357 -3.2949 -1.2984 3.8945 -3.4507 -1.6023 8.0261 3.9506 2.1966 -8.1312 -1.1950 -1.8484 5.1462 2.4724 1.1876 -2.6996 3.6067 0.5364 -5.2831 -3.6931 -3.4889 6.6168 -1.1743 -0.0795 3.6030 0.1935 0.8639 2.0010 3.4750 0.8698 -7.5516 -2.7213 -1.8816 5.1728
-0.3012 -0.1085 -5.4537 -0.6844 2.6385 1.7006 -7.1995 -1.8864 5.8746 4.7089 2.6491 -2.7428 0.9034 -3.6822 5.6145 6.4700 -1.2531 -5.9645 5.5517 -0.1911 -8.3910 1.0583 -1.5011 -3.0649 -3.1846 0.0087 9.5840 -5.7441 -1.0397 8.8915 -0.0884 3.9755 -2.7938 -1.2189 -0.3031 7.5267 1.6835 5.0556 -4.7396 -2.4743 -3.3619 1.0520 3.0777 1.2263 -8.2551 0.1973 -2.7322 -0.7434 -3.5855 -3.4340 3.7828 0.2487 1.5728 1.6225 -6.6197 -0.6233 6.1588 3.8690 1.7516 -3.4493 -0.3369 -3.5747 4.9374 1.0586 1.3919 -0.7084 -0.2849 1.0710 -2.7151 0.7633 1.8349 -6.2306 5.0465 0.2000 -4.8029 -4.3529 -0.1525 5.6317 0.1994 -1.9981 3.1947 -0.9236 -1.0553 1.3290 2.9269 2.9410 -5.9254 -2.5909 -1.7379 5.5896 0.5792 1.0548 -5.0521 0.0535 0.8653 0.3020 5.7756 -0.0164 -6.0072 0.9624 0.6958 -2.0563 4.8207 -0.0173 -7.1876 1.0781 -0.8036 -1.8352 -3.4642 -0.5867 8.3272 -4.9161 -0.3494 7.9705 0.6819 3.1569 -3.6616 -2.5720 0.0291 7.2727 0.8959 3.9002 -4.9587 -1.7868 -3.0976 2.2602 4.0730 1.2986 -7.2481 0.0122 -1.3330 -0.8930 -2.7262 -2.4420 3.2496 -5.1813 -0.8471 6.5612 4.4766 1.5042 -4.8089 -0.4956 -2.1571 4.4275 -0.0525 1.8551 -3.9215 1.5140 3.0183 -6.0205 -2.9698 -0.3983 5.8709 -0.5535 -2.2513 2.0091 0.1336 -0.6474 0.4645 3.4313 1.6134 -5.9092 -1.9430 -1.7265 4.3341

>  <OB_ATOM_TYPES> (1ppiA1)
C.3 O.3 O.3 O.3 O.3 O.3 O.3 O.3 O.3 O.3 O.3 O.3 O.3 O.3 O.3 O.3 O.3 C.3 C.3 C.3 C.3 C.3 N.3 O.3 O.3 O.3 O.3 O.3 O.3 O.3 C.3 C.3 C.3 C.3 C.3 C.3 C.3 C.3 C.3 C.3 C.3 C.3 C.3 C.3 C.3 C.3 C.3 C.3 C.3 C.3 C.3 C.3 C.3 C.3 C.3

>  <ENSEMBLE_RMSD> (1ppiA1)
1.879 2.011 2.038 2.095 2.151 2.191 2.244 2.259 2.297 2.368 2.371 2.385 2.427 2.469 2.479 2.507 2.535 2.612 2.626 2.630 2.651 2.669 2.708 2.798 2.836 2.844 2.868 2.884 2.944 3.042 3.093 3.099 3.141 3.210 3.225 3.338 3.423 3.481 3.489 3.599 3.626 3.627 3.691 3.736 3.765 3.788 3.857 3.925 4.017 4.118

$$$$
