
 OpenBabel03071213D

 48 47  0  0  0  0  0  0  0  0999 V2000
    3.8000   13.2000   13.0100 C   0  0  0  0  0
    4.6400   15.2800   14.1000 C   0  0  0  0  0
   11.9600   18.3800    6.9900 C   0  0  0  0  0
   10.4200   16.5200    7.4200 C   0  0  0  0  0
    4.1900   21.3700   -0.3200 C   0  0  0  0  0
    3.0400   20.5100    1.7400 C   0  0  0  0  0
    9.4300   20.9600    4.8700 C   0  0  0  0  0
    9.9600   18.6700    4.0700 C   0  0  0  0  0
    4.5900   18.6000    9.7800 C   0  0  0  0  0
    3.8600   19.0600    7.4400 C   0  0  0  0  0
   10.3700   15.1000   15.5900 C   0  0  0  0  0
    7.1000   11.5000   16.9900 O   0  0  0  0  0
    9.8500   20.0300   11.3100 O   0  0  0  0  0
    8.4200   12.6800   19.7900 O   0  0  0  0  0
    8.2400   14.6100   18.7200 O   0  0  0  0  0
    4.9500   18.5700    3.1500 O   0  0  0  0  0
    7.8100   16.0400   12.3100 O   0  0  0  0  0
    7.4900   16.1000   16.0800 O   0  0  0  0  0
    7.2900   16.8200    8.9200 O   0  0  0  0  0
    6.3300   20.6900    5.8500 O   0  0  0  0  0
    5.2300   12.9100   14.9900 C   0  0  0  0  0
   10.8000   18.4300    9.1700 C   0  0  0  0  0
    5.4700   19.8900    1.1900 C   0  0  0  0  0
    6.3700   13.1400   18.6700 C   0  0  0  0  0
    8.4900   18.3200   12.3700 C   0  0  0  0  0
    9.2800   16.5900   13.9100 N   0  0  0  0  0
    6.7400   19.8900    3.2200 N   0  0  0  0  0
    7.3800   13.9200   15.4800 N   0  0  0  0  0
    8.4100   18.7000    9.2900 N   0  0  0  0  0
    6.6600   18.6000    6.5300 N   0  0  0  0  0
    4.2000   13.8300   14.3400 C   0  0  0  0  0
   11.3600   17.5000    8.0800 C   0  0  0  0  0
    4.3800   20.9600    1.1400 C   0  0  0  0  0
    8.9300   19.7700    4.0600 C   0  0  0  0  0
    4.9000   18.3600    8.3100 C   0  0  0  0  0
    6.1400   12.5300   17.2700 C   0  0  0  0  0
    9.6500   18.6100   11.4100 C   0  0  0  0  0
    9.1800   15.3000   14.6400 C   0  0  0  0  0
    6.0800   13.5300   16.0900 C   0  0  0  0  0
    9.5500   18.0700    9.9800 C   0  0  0  0  0
    7.4900   19.2600    4.3200 C   0  0  0  0  0
    6.3400   18.8100    7.9600 C   0  0  0  0  0
    7.8200   13.4800   19.0300 C   0  0  0  0  0
    5.7600   19.3000    2.5800 C   0  0  0  0  0
    8.4800   16.8700   12.8900 C   0  0  0  0  0
    7.9000   15.1500   15.4500 C   0  0  0  0  0
    7.3900   18.0300    8.7900 C   0  0  0  0  0
    6.8500   19.6000    5.6800 C   0  0  0  0  0
  1 31  1  0  0  0
  2 31  1  0  0  0
  3 32  1  0  0  0
  4 32  1  0  0  0
  5 33  1  0  0  0
  6 33  1  0  0  0
  7 34  1  0  0  0
  8 34  1  0  0  0
  9 35  1  0  0  0
 10 35  1  0  0  0
 11 38  1  0  0  0
 12 36  1  0  0  0
 13 37  1  0  0  0
 14 43  1  0  0  0
 15 43  2  0  0  0
 16 44  2  0  0  0
 17 45  2  0  0  0
 18 46  2  0  0  0
 19 47  2  0  0  0
 20 48  2  0  0  0
 21 31  1  0  0  0
 21 39  1  0  0  0
 22 32  1  0  0  0
 22 40  1  0  0  0
 23 33  1  0  0  0
 23 44  1  0  0  0
 24 36  1  0  0  0
 24 43  1  0  0  0
 25 37  1  0  0  0
 25 45  1  0  0  0
 26 38  1  0  0  0
 26 45  1  0  0  0
 27 41  1  0  0  0
 27 44  1  0  0  0
 28 39  1  0  0  0
 28 46  1  0  0  0
 29 40  1  0  0  0
 29 47  1  0  0  0
 30 42  1  0  0  0
 30 48  1  0  0  0
 34 41  1  0  0  0
 35 42  1  0  0  0
 36 39  1  0  0  0
 37 40  1  0  0  0
 38 46  1  0  0  0
 41 48  1  0  0  0
 42 47  1  0  0  0
M  END
>  <MOLID> (1psoA1)
1psoA1

>  <SMILES_CANONICAL> (1psoA1)
CC(C[C@@H]([C@H](CC(=O)N[C@H](C(=O)N[C@H]([C@H](CC(=O)O)O)CC(C)C)C)O)NC(=O)[C@H](C(C)C)NC(=O)[C@H](C(C)C)NC(=O)CC(C)C)C	

>  <FINGERPRINT> (1psoA1)
0000000000000011000000000000000000000001000000000111000000000000000000000001000000000000000000000000010000000000000001000000000000000000000110000000000010000000000000000000000000000000000000000000000000000000000000000000000000100000000000000000000000001000000000000010000000000000000000000000000000000000000000001000000000000000001000000000000000000000010000000000001100110000000000000001011000000000100000000000101000000000100000000010000000000001100000000001100000000000000000000000000000001000000000000000100000010000000000000000000000000000000000000000000000000000000000000000000111000000001000000000000000000000000000000000001000000001000000000000000000000000000000000011000000000100000011100001000000000011000000000000000010000011000000100001000000000000000110000000000000000000000000000000000100000000000000000000000000000000000000000000000000000000000000000001000000000000000000000000000000001000000000000000000000000000000000000000010000000000000000010010000000000010010000000000000000000000100000000010101000000000

>  <MACCS166> (1psoA1)
000000000000000000000000000000000000000000000000000011000000000000000000010000100000000011010010100000010001011000101000001000001011000100111100010010110111111110010000

>  <OB_MW> (1psoA1)
685.463

>  <OB_logP> (1psoA1)
3.4217

>  <OB_PSA> (1psoA1)
223.26

>  <OB_MR> (1psoA1)
184.656

>  <OB_ATOMIC_CHARGES> (1psoA1)
5.79561e-05 5.79561e-05 5.79561e-05 5.79561e-05 0.000503441 0.000503441 0.0022754244 0.0022754244 0.0022754269 0.0022754269 0.0333709477 -0.2206987177 -0.2207731098 -0.2455593912 -0.2455593912 -0.2733315613 -0.2732407025 -0.2714871949 -0.2714871996 -0.2714758668 0.0242891911 0.0242882116 0.0868226526 0.1485805497 0.1213934583 -0.1977052139 -0.1977780799 -0.203131514 -0.203132497 -0.1963426209 0.0017908805 0.0017908765 0.0091371307 0.0289616879 0.0289622907 0.1829985475 0.1808716919 0.172773954 0.1261580745 0.1260853671 0.1726466428 0.1726895486 0.3675066255 0.2417551171 0.2444095844 0.2612387141 0.2612376018 0.2616033053

>  <MCT_HBD> (1psoA1)
8

>  <MCT_HBA> (1psoA1)
14

>  <ENSEMBLE_TOTAL> (1psoA1)
50

>  <ENSEMBLE_COORDS> (1psoA1)
-3.6432 -2.9722 3.5070 -1.4918 -3.5840 2.4908 5.4386 2.5360 -2.6444 6.6137 1.3225 -0.8551 -3.9461 5.4162 -6.3531 -5.1007 5.1223 -8.4959 0.3128 3.8867 -4.4910 1.5770 2.3866 -6.0391 -1.1400 -0.6173 -0.4516 -1.5557 -1.4442 -2.7144 2.4080 -0.8998 5.8869 -0.3079 -3.3658 8.1564 4.4990 -0.4017 0.9915 -3.7558 -2.3364 8.8043 -2.0902 -0.9103 9.4382 -2.8864 1.4811 -8.0305 1.9116 -2.5250 1.7722 1.8261 -4.1141 5.0187 1.0956 2.4972 -1.5163 -2.4713 1.1364 -4.2113 -1.8948 -4.0387 4.8769 4.3939 0.5378 -1.6322 -3.0266 3.8764 -8.0767 -2.0361 -1.9491 7.2634 2.1870 -0.1603 1.4217 1.7247 -1.0547 3.5612 -2.0819 2.7315 -6.2434 0.0956 -2.6166 5.3388 1.9926 0.3628 -1.5965 -0.2192 0.8556 -3.7928 -2.1579 -3.0739 3.7452 5.2616 1.7466 -1.3728 -4.2863 4.4209 -7.4386 0.2515 3.0325 -5.7320 -0.5821 -0.6732 -1.8552 -1.3658 -3.3054 7.2132 3.2268 -0.4377 0.3580 2.2744 -1.7895 4.6733 -0.8116 -3.6132 5.8418 3.1551 0.5952 -0.7578 -0.8910 2.0409 -5.8055 -0.2915 0.7327 -2.3533 -2.5940 -1.6667 8.6215 -2.6672 2.5507 -7.4742 1.9600 -1.3951 2.2463 1.3874 -2.9654 5.0071 0.9975 1.3015 -1.7860 -1.2953 1.3405 -4.5148
-3.7393 -1.8286 6.5007 -2.0316 -0.4832 7.6657 4.5918 -0.2194 -0.8131 3.8975 0.6313 -3.0183 -2.1608 1.3026 -10.3699 -1.6447 3.6727 -10.7874 -0.7474 5.7008 -3.9606 1.0816 5.8884 -5.6123 -3.8012 2.2513 -3.1553 -3.3646 -0.0683 -2.5133 4.0101 -1.0437 4.7577 -1.3330 -4.9803 5.7820 -0.4382 -1.1709 0.4610 -0.6418 -6.2095 9.7610 0.8488 -4.5156 9.4221 -0.4770 1.4611 -7.3946 1.7687 0.3007 3.0135 1.5916 -0.7142 6.1831 -0.1023 -0.6268 -3.5376 1.3138 2.5724 -4.1666 -1.3539 -2.1846 5.9931 2.3491 0.7763 -1.0990 -2.0797 2.8963 -8.4845 -1.1956 -4.6298 8.1351 1.8392 -1.1410 1.0864 2.2953 -1.9556 3.2439 -1.3560 3.2782 -6.2580 0.9571 -2.8920 5.6818 -0.0009 0.6975 -1.6369 -0.8973 2.6366 -3.5117 -2.3460 -1.8354 7.0773 3.4278 -0.0503 -1.7582 -1.4735 2.5288 -9.8191 -0.2654 5.2736 -5.3250 -2.7577 1.3155 -2.5894 -0.5112 -4.4437 6.8028 0.7238 -0.3505 0.4391 2.8563 -2.0002 4.5751 -0.1908 -2.9818 6.5514 1.0715 -0.0312 -1.0033 -0.2153 3.7819 -5.5473 -1.4961 1.3190 -3.4380 -0.1972 -5.0852 9.1508 -1.1934 2.4558 -7.3537 1.9511 -0.8171 2.5462 1.7470 -1.7645 5.5694 -0.4623 0.3542 -2.8905 0.1519 2.9283 -4.3555
-3.3341 -5.7216 8.5091 -4.3036 -4.5047 6.5994 5.3471 -0.9023 -2.2404 6.1807 0.3583 -0.2930 -4.4158 5.2105 -8.1808 -5.1673 2.8774 -8.3987 1.9377 3.4932 -7.7321 2.2633 4.2091 -5.3942 -0.9098 -0.2554 -2.1735 -1.3472 2.0060 -1.2424 -2.5945 -1.2086 3.5844 0.5697 -5.2557 7.8489 1.7208 2.2270 1.2664 -0.1421 -1.5718 8.4587 0.9034 -0.7203 6.6249 -2.3225 4.0559 -5.6394 1.3327 -0.0690 3.5211 -0.7632 -3.9046 3.2574 2.1988 2.9680 -2.1538 -0.3530 0.4806 -6.1938 -2.0043 -5.4044 6.4493 3.7960 -0.2866 -0.4225 -2.8027 3.3612 -7.9056 1.0351 -3.0820 7.0654 0.9227 -0.0159 1.1382 -0.3928 -1.3173 2.5977 -0.6721 3.0693 -6.9407 -1.3642 -3.3032 5.4113 1.8697 0.7881 -1.4539 0.7600 1.0873 -4.2744 -3.0349 -4.7825 7.3677 5.0058 0.1501 -1.2153 -4.2265 3.8035 -7.6679 1.7219 3.1185 -6.2855 -0.9210 1.2257 -2.4599 -0.0631 -4.0858 7.3461 2.1263 0.8909 1.0129 -1.1432 -1.5713 3.8029 -0.8620 -4.4617 6.1109 2.7932 0.8397 -0.3471 0.2884 2.8022 -5.8968 0.3502 1.7648 -3.0732 0.5973 -1.6719 7.3292 -1.9417 3.5434 -6.6853 0.6720 -0.4420 2.5589 -1.0512 -3.0518 4.0911 1.5617 1.9162 -2.1824 0.1781 1.3436 -5.4996
-3.9431 -0.3946 4.7841 -2.5839 -0.1385 2.7411 6.1621 1.7572 -0.3449 4.4240 3.3755 -1.0590 -4.6268 0.3376 -8.8464 -2.2913 -0.2825 -8.2592 0.0723 -0.2419 -5.0114 0.7455 0.9849 -7.0543 -2.7114 1.9055 -0.5942 -1.6584 0.1324 -1.9463 2.5303 -1.4054 6.2821 -1.2456 -4.3094 7.0237 1.3298 0.8696 2.0328 -1.2473 -6.1303 2.9327 -1.8697 -6.9019 4.9870 -2.5691 2.8292 -7.3391 4.0467 1.0674 4.6767 0.7302 -2.4096 3.5452 0.9438 3.6486 -0.1662 -0.4881 4.1668 -3.9293 -2.2701 -2.1211 4.1738 3.8629 0.9121 -0.7114 -3.7892 0.9051 -6.5705 -0.6485 -4.8204 4.7792 3.7262 0.7752 2.3301 2.8153 -0.7603 3.9724 -1.9440 1.7857 -5.3572 -0.2376 -1.9008 5.5935 1.5191 1.4486 -0.6459 -0.0275 2.1242 -2.9485 -2.5924 -0.6453 4.1619 4.8890 1.9440 -1.1270 -3.6863 -0.0538 -7.7360 0.4519 1.1075 -5.5774 -1.3966 1.3038 -1.0290 -1.5700 -4.0237 5.6734 2.5548 0.5511 1.3933 1.8509 -0.8683 5.0423 -1.5339 -2.5253 5.4350 2.7234 1.4177 0.1534 -0.5648 2.2030 -5.3086 -0.4870 2.3735 -1.6048 -1.3335 -6.0581 4.2842 -2.7079 1.9502 -6.4951 3.5320 0.4035 3.7789 0.7452 -1.8137 4.6188 0.7258 2.5782 -0.7292 -0.3572 2.9465 -4.0051
-5.1268 -3.1485 7.5695 -3.2315 -1.7691 8.2912 6.2543 -0.9927 -1.0848 5.9386 1.2640 -0.1756 -4.4846 1.4475 -7.8493 -3.2948 -0.7352 -7.9022 -1.1219 5.3877 -6.3949 0.9599 4.7110 -7.5657 -0.6049 -0.0961 -2.2848 -1.0777 1.6411 -0.5727 0.8120 0.5146 6.1942 -2.5125 -4.4735 4.0349 3.6586 0.0988 1.8314 1.2972 -5.2821 5.5542 0.1777 -6.9023 4.4030 -0.9168 0.2001 -6.2816 -0.4673 1.0473 2.2510 0.8989 -2.2095 4.6323 2.3884 3.2583 -1.9806 1.0177 4.3043 -4.5590 -3.2636 -2.7643 6.0198 3.9659 -0.1426 -0.9057 -3.2152 0.7152 -5.8200 -1.0409 -5.2950 5.7283 1.8258 1.5761 1.7870 1.1478 0.4341 3.7918 -1.5578 2.4130 -5.9677 -1.3120 -1.6839 5.1142 1.9606 1.0998 -1.2697 0.4524 2.1429 -4.0058 -3.6290 -2.9725 7.4700 5.4023 0.2531 -1.1597 -3.9986 0.2771 -7.0355 -0.3754 4.2433 -7.0409 -0.8018 1.3784 -2.0295 -1.4434 -4.1082 4.8862 2.5512 0.4858 1.0236 0.2328 0.1035 4.8624 -1.7764 -2.9026 5.7510 3.0651 0.9435 -0.3419 -0.2535 3.0076 -6.1653 0.2851 2.2732 -2.5794 0.1808 -5.9247 5.1359 -1.7746 1.0555 -6.0882 0.7053 0.9881 2.6082 0.0152 -1.3910 4.8649 1.6537 2.2736 -1.9182 0.4337 3.2555 -4.8261
0.7757 -6.5399 5.8537 1.9448 -5.5055 7.7591 5.5839 1.0621 -1.5584 5.7128 -1.2796 -0.8346 -5.6072 2.1210 -7.1412 -5.2843 3.8841 -8.8282 -1.2396 0.4695 -6.8256 -0.4351 1.6830 -8.8175 -1.7631 2.5051 -2.0164 -1.4748 0.4928 -3.4311 1.7773 -0.6340 6.3167 -3.0541 -3.2954 4.9981 1.1299 1.4989 1.4170 -3.3557 -3.7981 9.4323 -4.9092 -4.0314 7.7785 -2.0848 4.8866 -7.8389 2.6340 1.5537 4.1036 1.1772 -3.1746 4.0782 2.8335 1.9268 -3.0992 1.1860 4.0869 -5.3446 -0.2273 -4.6019 7.0350 3.5223 -0.1834 -0.9086 -3.9692 3.9144 -6.7276 -2.8065 -2.9187 7.3379 3.1786 0.4280 2.0649 2.2898 -0.7378 3.9529 -1.7454 3.2350 -6.2382 -0.3289 -2.5351 5.7183 1.5926 1.2274 -1.2741 0.5442 2.0009 -4.5884 1.0589 -5.2411 6.5674 4.9922 0.0299 -0.6289 -4.5964 3.0368 -7.7853 -0.2818 1.5244 -7.3247 -0.7764 1.5003 -2.5537 -2.4084 -3.7847 6.1619 2.0853 0.5252 1.0142 1.2338 -0.9019 4.9286 -0.9133 -3.8418 5.9193 2.6654 0.9319 -0.3394 -0.4135 2.8660 -6.6358 0.4317 2.1931 -3.1620 -3.8154 -3.6506 8.1681 -2.5079 4.0740 -7.0221 2.6561 0.5013 3.4732 0.7261 -2.3290 4.8456 1.7529 1.7604 -2.5373 0.5130 3.0651 -5.4627
-3.0342 -1.2611 7.2681 -1.0247 0.1684 7.3288 2.4242 -1.6172 -2.7048 3.7974 0.4186 -2.6368 1.8662 0.5648 -8.7465 2.1921 2.9199 -9.3708 -2.3210 5.7973 -4.3444 0.1038 6.2661 -4.1750 -4.9015 2.0685 -2.6286 -4.3028 -0.2545 -2.1545 4.0492 -1.0449 3.7603 -1.2775 -4.6615 5.6166 -1.0003 -1.2678 0.2340 -0.0033 -5.9292 9.5120 1.4800 -4.3150 8.8771 0.9513 1.6204 -5.5689 1.5546 0.2922 2.3144 1.8838 -0.6018 5.5086 -1.1102 -0.5113 -4.1139 -1.0599 3.4276 -2.3778 -1.0474 -1.8826 5.9530 1.4618 0.5712 -1.8834 0.3864 2.3057 -7.8102 -0.7373 -4.3911 7.9184 1.3558 -1.2014 0.4399 2.1307 -1.9569 2.5276 -0.6684 3.2471 -5.9237 1.0795 -2.7484 5.1367 -0.9493 0.4822 -2.0232 -2.3959 2.4471 -3.9984 -1.5260 -1.2512 7.2390 2.3998 -0.1174 -2.8531 1.7924 1.9890 -8.2520 -0.9482 5.4019 -4.8292 -3.7398 1.1348 -2.3679 -0.2529 -4.2326 6.4974 0.1324 -0.4588 -0.0555 2.8613 -1.9745 3.7761 0.1329 -2.7935 6.2217 0.2174 -0.2324 -1.5563 -0.6042 3.9416 -4.6638 -2.7403 1.1325 -3.5052 0.3875 -4.8540 8.7875 0.2979 2.3426 -6.3117 1.6749 -0.8391 1.8600 1.9026 -1.6661 4.8997 -1.5100 0.2815 -3.2657 -1.3608 3.2430 -3.5556
3.0656 -4.8416 5.7059 4.0314 -2.5865 5.9367 4.3239 1.6716 -1.1557 5.0251 -0.5597 -1.8857 -3.9521 6.6689 -8.4200 -2.0591 6.6942 -6.8467 -0.9762 -0.1087 -7.4317 0.5482 0.9930 -9.0308 -2.7292 1.0968 -2.3165 -1.9494 -0.5906 -3.9368 -2.0592 -0.8423 5.1661 0.7705 -4.3896 9.3498 0.0852 -0.9657 0.5100 -3.1032 -5.0682 9.9256 -1.6351 -3.6448 10.9310 -1.4026 3.7045 -9.2849 -1.4105 0.8864 2.6366 0.0212 -3.6368 4.3098 1.8928 1.5399 -3.1284 0.6688 3.4603 -5.1205 2.0228 -3.1736 7.2246 2.7103 -0.2602 -1.0852 -2.9683 4.5384 -7.6607 -1.4538 -4.1432 8.5477 0.8979 0.7677 2.0356 -0.0172 -0.5313 3.8425 -1.5506 2.6996 -7.1980 -0.1217 -2.4860 6.3238 0.6405 1.0803 -1.2420 -0.2162 1.3519 -4.7676 2.7518 -3.3826 5.9199 4.1447 0.1921 -0.9157 -2.6734 5.9749 -8.0215 0.1369 0.9027 -7.5795 -1.5161 0.4073 -2.8901 -0.0541 -3.5529 8.5414 1.1783 -0.1388 0.8536 -1.0073 -1.4841 4.2903 0.5394 -3.4932 7.1339 1.7013 0.6141 -0.3593 -0.1903 2.2694 -7.0070 -0.5087 1.4452 -3.3523 -2.0397 -4.2253 9.9348 -1.8779 3.6346 -8.1568 -0.3112 0.3799 2.8442 -0.3081 -2.6460 4.9609 0.8050 1.3398 -2.5908 0.1295 2.4385 -5.5405
-1.7109 -5.2045 9.4716 -1.6697 -6.5022 7.3740 5.2787 0.0843 0.2771 5.3290 0.8300 -2.0593 -4.4060 4.4857 -8.6351 -4.5203 5.8682 -6.5803 1.5020 4.7291 -4.5353 1.0824 5.3204 -6.9083 -2.4763 1.0887 -3.7049 -1.8183 -1.2233 -3.2195 3.5671 -0.7269 5.3368 -1.1658 -1.9167 8.3950 0.2960 -1.4884 0.1956 -4.3210 -1.6672 5.2357 -2.3730 -2.4792 4.3603 -2.1814 2.0602 -7.4808 1.5626 0.2564 3.0952 0.6996 -0.6483 5.8283 1.9381 -0.9425 -3.8094 1.4467 1.5937 -6.2474 -0.2659 -4.4809 7.6243 3.1852 0.6666 -0.8495 -3.7584 3.5303 -6.4474 -2.7699 -2.5378 6.7434 2.3417 -1.1815 1.3347 2.3209 -1.8989 3.5661 -1.5185 3.3415 -5.6684 0.9501 -2.9160 6.2784 1.1268 0.1545 -1.9332 0.3037 1.7297 -4.2435 -1.5868 -5.1207 7.9706 4.5438 0.0373 -1.0426 -3.7695 4.7783 -7.2988 0.4913 4.7267 -5.6549 -1.3563 0.2144 -3.1993 -1.3173 -2.2258 7.0216 1.3685 -0.5656 0.3597 2.6091 -1.8381 4.9789 -0.3914 -3.3632 6.6085 2.0720 -0.3543 -0.9740 -0.1159 3.3843 -5.9649 -0.0716 0.3567 -4.0011 -3.0915 -2.2259 5.3158 -2.4154 2.8877 -6.6077 2.0160 -0.8286 2.7523 1.3024 -1.7104 5.7153 1.1101 -0.2239 -3.2567 0.6270 2.1464 -5.5167
-0.1267 -3.0474 10.1735 -1.1967 -0.8692 9.7496 5.5334 0.7215 -1.5472 5.5378 -0.0605 0.7855 -3.6388 5.5029 -6.7194 -4.4733 5.6239 -9.0309 0.4352 4.0086 -4.7304 2.0987 2.9542 -6.2630 -0.9430 -1.9042 -2.5850 -0.2070 -1.8888 -4.9208 -0.3622 1.8118 5.4658 -1.3989 -3.8031 4.7146 2.6932 -0.7231 1.9477 0.5353 -6.4282 6.2747 1.4920 -5.4218 4.4647 -1.8777 2.2523 -9.1123 -0.3517 -1.6680 2.6125 -2.5840 -0.1675 5.6447 1.7128 1.7752 -2.5820 -1.9037 0.9921 -5.2654 -1.6626 -2.7806 8.2583 3.5770 -0.4968 -0.6637 -2.2953 4.5494 -8.5637 0.4805 -4.0803 6.1920 0.5859 0.2982 1.5740 -0.7590 0.4174 3.5272 -1.5376 2.9882 -6.9414 -0.7694 -1.4153 6.3766 1.2936 -0.1465 -1.3718 0.3256 0.8314 -4.7125 -0.6103 -2.1011 9.1037 4.6771 0.4840 -0.3289 -3.6978 4.7845 -8.0465 0.6733 3.4108 -6.0942 0.0855 -1.3429 -3.5422 -1.0152 -3.8654 6.0793 1.6717 -0.5713 0.9737 -0.3542 0.4060 4.9118 -1.4865 -2.6019 6.7654 2.2245 0.0783 -0.2861 -0.3186 2.3432 -6.5049 0.1005 0.1777 -3.4411 0.8936 -5.3572 5.5283 -1.8785 3.1380 -8.2648 -0.2014 -0.4510 2.6135 -1.3806 -0.4070 5.6588 1.1415 0.6948 -2.4548 -0.7381 1.3546 -5.4230
-3.0413 -4.0721 8.0703 -4.1233 -1.9275 7.5396 5.6273 -1.1628 0.5426 5.2533 1.2758 0.4822 -5.4609 1.7076 -6.9292 -3.6140 1.3787 -8.5559 1.6893 0.9717 -6.2158 1.7894 3.0077 -7.6142 -2.4399 0.7655 -1.8228 -0.8975 -0.3338 -3.4075 1.8153 -0.1978 6.9195 -0.0576 -4.8432 4.0194 0.5965 0.7833 1.4912 -0.8550 -4.0083 0.8453 0.0330 -2.2966 2.0648 -2.7098 3.5480 -6.2943 1.6880 1.8481 4.1239 1.4365 -2.8992 5.9877 0.9634 3.0536 -0.6001 -0.2411 4.3180 -3.8866 -2.7823 -3.0740 5.8179 3.5251 -0.3564 -0.4508 -3.1863 1.2008 -6.0564 -1.8371 -3.5690 2.9191 2.7912 0.5231 2.4667 2.0216 -0.4171 4.5136 -0.9687 2.0118 -6.1518 -0.6185 -2.1164 5.2378 1.5631 0.8613 -1.0643 0.3910 2.1212 -3.5300 -2.9049 -2.7846 7.2954 4.9831 -0.0316 -0.2198 -4.1557 1.0049 -7.1990 1.4752 2.4671 -6.2422 -0.9924 0.5400 -2.1801 -1.3207 -4.2316 4.1800 1.8732 0.1960 1.3030 1.1112 -0.5384 5.6263 -1.3490 -3.3495 5.4132 2.5184 0.6788 0.0074 0.0979 2.9129 -5.7939 -0.2655 1.8680 -2.2745 -0.7735 -3.2033 1.9312 -2.2912 2.4004 -6.1947 2.0874 0.7423 3.7730 0.6927 -1.9831 5.6508 0.8118 2.0068 -1.2258 0.0516 3.2030 -4.3123
-1.3276 -4.7010 7.6167 -2.5340 -2.8280 8.6699 5.2295 1.1833 -1.6586 5.7001 -0.8038 -0.3028 -5.5848 2.1530 -8.0827 -4.3511 0.4386 -6.7796 0.2529 -0.2602 -5.9818 0.8673 0.9500 -8.0464 -1.8777 2.1483 -1.1369 -1.4125 0.2446 -2.6372 1.5888 0.4473 7.0314 -0.9667 -3.0838 2.7229 1.1844 1.9155 2.1661 -1.4117 -5.8696 4.0026 -2.8586 -6.0062 2.2469 -2.0714 2.5776 -8.3510 2.9473 2.2001 4.7283 1.3565 -2.3555 6.2506 2.6461 2.4220 -2.3966 0.4337 4.0622 -4.6904 -2.2534 -2.8623 6.2257 3.4424 0.1781 -0.2454 -3.7001 2.8961 -6.6160 -2.9361 -4.0962 3.7104 3.2697 0.8738 2.7598 2.3666 -0.0443 4.7776 -1.5376 2.0167 -6.1586 -0.5243 -1.5571 5.1424 1.5589 1.6947 -0.4903 0.4192 1.9104 -3.8387 -1.6092 -3.2203 7.5443 4.9189 0.4861 -0.3564 -4.7993 1.8773 -6.8270 0.7288 1.0577 -6.5487 -0.7931 1.3108 -1.7670 -1.9351 -2.9570 3.7499 2.1418 0.9498 1.7473 1.2115 -0.0239 5.6443 -1.2442 -2.8122 5.0945 2.6741 1.3354 0.3675 -0.1175 2.2571 -6.1663 0.2393 2.2054 -2.4376 -2.4091 -5.4077 3.2134 -2.3595 2.4869 -7.1625 2.8316 1.1076 4.1805 0.7249 -1.4469 5.7204 1.6198 2.0961 -1.8048 0.2605 2.8536 -4.8301
-0.9792 -5.3080 9.4231 -2.2276 -3.4371 8.4365 3.6912 0.3320 0.8874 4.2114 -1.5895 -0.5619 0.8697 5.4127 -9.5008 -0.7193 3.7856 -10.5060 2.4415 2.7029 -6.2165 1.9669 4.2998 -4.3839 -2.8553 -0.3625 -2.9390 -3.8556 1.1305 -1.2294 -2.4788 -0.8602 4.0986 2.2751 -4.4935 6.2306 1.0698 -2.7827 -0.1325 1.4002 -0.3082 7.5016 3.4585 -0.5594 6.5492 -1.5664 2.6577 -7.8045 -1.4258 -3.8351 1.3123 0.5553 -1.3245 4.2287 -0.8039 2.0389 -0.2115 -1.2666 4.2670 -3.8896 -0.3302 -4.4595 7.2077 2.1780 -0.2850 -0.9830 -1.3138 4.9814 -8.3510 2.3105 -2.4639 7.4930 -1.2168 -1.9791 -0.1892 -1.2704 -1.6805 2.1696 -0.2579 4.0178 -6.4487 -0.4120 -3.2364 5.1203 -0.0175 0.3802 -1.6195 -1.0806 1.9663 -3.6659 -0.8627 -4.0696 8.5668 3.1001 -0.8047 0.0932 -0.5777 5.0320 -9.6703 1.5290 3.0214 -5.0573 -3.0449 1.0681 -2.4995 1.6977 -3.2070 6.3310 0.1937 -1.8538 -0.7390 -1.6572 -1.9899 3.5256 0.1847 -3.2621 6.4367 0.7038 -0.4214 -0.6458 0.0695 3.0074 -5.4691 -1.7633 1.8637 -2.4007 2.4808 -1.0267 7.1127 -1.0546 3.7407 -7.5400 -1.3109 -2.6227 1.1659 -0.3824 -2.1111 4.3196 -0.8228 1.4446 -1.2871 -0.8333 3.1832 -4.2682
-0.7756 -5.5526 4.6586 1.3734 -5.3892 3.4722 0.7111 -2.7789 -2.9062 -1.3664 -3.9966 -2.4015 -1.3699 -0.1234 -8.8880 0.5045 1.4935 -9.0563 2.0738 4.6359 -4.7888 1.1803 6.3045 -6.3766 -2.0418 3.1285 0.0832 0.2658 3.9973 -0.1759 3.4586 0.5262 4.6611 -0.8403 -1.7967 7.4703 -0.9484 -0.1695 1.1479 -2.3849 -5.7619 8.2086 -3.1141 -3.6112 8.4098 -2.0202 3.0730 -7.4637 1.2704 1.5522 2.3607 3.3390 -2.3031 5.0566 1.0987 1.6614 -2.4151 -2.3954 4.3967 -4.2300 1.1600 -4.4633 5.7452 -1.1195 -1.6779 -1.6184 -0.7208 1.1485 -6.8462 -0.7628 -4.0878 8.0536 1.4457 -0.1373 0.6795 2.1282 -0.5330 2.9274 -0.0769 3.3340 -6.2071 1.0646 -2.0268 5.4535 -0.7839 0.6965 -1.4612 -0.4092 3.7798 -3.2138 0.4428 -4.6927 4.4330 -0.3858 -2.9704 -1.8866 -0.2430 0.5498 -8.1493 0.8462 5.4148 -5.2052 -1.0517 3.7512 -0.8695 -0.5779 -3.0865 6.9316 0.0876 -0.7329 0.3637 2.2221 -0.2835 4.3461 0.8413 -3.1192 6.3801 -0.2062 -0.5810 -1.1203 -0.3716 4.5576 -5.5009 -0.9388 2.9580 -2.1559 -2.2151 -4.4182 8.2266 -1.0310 2.6179 -6.9013 1.5738 0.3980 2.0751 2.3080 -1.6412 4.9932 -0.0670 1.7241 -2.0386 -1.1776 4.2352 -4.2612
0.3758 -3.4819 9.1841 -1.3945 -1.7962 9.4785 5.5096 -0.4170 -1.6453 5.6658 -2.2555 -0.0203 -4.2891 4.5428 -9.5820 -2.4747 5.4423 -8.1492 1.0010 3.3275 -5.5131 -0.4641 5.2963 -5.2865 -1.1334 -2.1959 -3.2533 0.1887 -1.2996 -5.1289 1.5793 1.3599 6.1174 -0.0592 -4.2052 3.9817 0.8317 0.5862 1.0957 -3.4654 -4.9739 5.7767 -4.0277 -4.6837 3.5887 -3.9991 2.8489 -6.5414 2.3793 2.2760 3.2432 2.0499 -1.4190 6.6604 1.2277 1.7571 -2.0569 -2.7149 1.4845 -3.7288 -1.1366 -2.9064 7.3033 3.4550 -1.3969 -0.6505 -2.6874 2.9394 -8.5523 -2.2363 -3.3853 4.5357 3.0961 0.4354 1.8932 2.3793 0.1440 4.1627 -1.6889 2.6115 -6.4288 0.0499 -1.7223 5.5162 1.3804 -0.4347 -1.3492 -0.4518 1.1239 -4.0432 -0.3966 -2.3769 8.5074 4.8951 -1.0151 -0.4033 -2.8792 4.3378 -9.0926 -0.2412 3.8706 -4.8443 -0.0059 -1.2660 -3.6304 -0.9321 -3.9435 5.0655 2.0245 -0.1820 1.0102 1.2929 0.2665 5.1095 -0.2606 -3.0228 6.0713 2.4960 -0.2415 -0.4412 -1.4907 3.0435 -5.0701 -0.2583 0.1103 -3.0347 -3.3202 -4.4191 4.5501 -2.8932 2.8169 -7.0698 2.5622 1.0653 3.1517 1.2115 -1.0475 5.8438 0.8773 0.5812 -2.1373 -1.6279 1.8201 -4.1938
-4.6962 -4.5813 3.6850 -2.6021 -4.8820 2.4316 5.3418 0.5489 -3.4025 6.4923 1.4618 -1.4174 -3.1033 -0.0049 -4.1642 -5.0524 0.4266 -5.5961 0.1781 5.6860 -5.1930 1.3670 3.9272 -6.4183 0.1020 -0.9721 -2.5611 -1.0978 0.3098 -0.8016 2.3704 -2.7623 5.3140 -3.2008 -2.2267 6.6958 2.6575 1.4615 1.8026 -3.2380 0.6307 5.3795 -1.1509 1.1805 4.6535 -2.6448 3.4163 -2.7817 3.8761 -1.4294 3.0346 0.4620 -5.2007 4.3870 1.6555 3.0446 -1.2182 -0.2416 1.1989 -5.8573 -2.5380 -4.4047 4.8556 4.4247 0.1480 -1.1433 -4.0628 2.2947 -4.3444 -1.4667 -0.8418 5.9190 2.3898 -0.8453 1.2322 1.7095 -2.2658 3.0053 -1.9819 3.2853 -4.9986 -0.5327 -3.1093 4.3304 2.0850 0.7729 -1.1284 0.7838 1.6435 -3.8376 -3.2636 -4.1254 3.5580 5.1528 1.1337 -2.0260 -3.7607 1.0044 -5.0724 0.0298 4.3320 -5.8455 -0.5588 0.3381 -2.2097 -2.3666 -2.0046 5.5630 3.2183 0.4078 1.0351 1.8625 -3.3050 3.9978 -1.6021 -3.2866 5.2844 3.3224 0.8649 -0.4036 -0.5485 3.3688 -4.8304 0.2652 1.5745 -2.4953 -1.9093 0.4142 5.2308 -2.8238 3.0413 -3.9366 2.7710 -1.5350 2.5128 0.5353 -3.9806 4.2501 1.4047 1.8896 -1.5559 -0.0144 1.9568 -4.9190
0.1248 -6.2761 6.4439 1.5257 -5.0402 8.0501 5.9667 0.5875 -0.1352 6.1880 0.6395 -2.5981 -5.8672 3.3563 -8.1006 -4.1458 5.0362 -7.4809 0.6703 4.3384 -5.9326 -1.1216 5.9853 -5.5352 0.3888 -1.1384 -4.9178 1.3497 0.8839 -5.9359 -0.1403 -0.5431 3.1102 -3.4561 -2.7795 5.2789 1.3799 -0.8734 0.3051 -2.9232 -1.5641 9.6503 -4.6267 -2.6537 8.5995 -4.0744 2.4004 -5.3096 2.8714 0.7682 2.9301 0.6760 -3.5823 3.9561 1.6296 1.9770 -1.5690 -1.8993 2.2154 -2.8911 -0.6067 -4.0558 7.2787 4.5630 -0.9612 -1.5797 -3.5376 2.5755 -7.6446 -2.7593 -1.7744 7.3290 3.5605 -0.9329 1.3887 2.1377 -1.4129 3.2460 -1.9004 2.9146 -5.9544 -0.4691 -2.3342 5.5480 2.3691 -0.1400 -2.1204 0.2153 2.2016 -3.8168 0.5778 -4.9072 6.8850 5.8684 -0.2194 -1.4033 -4.4033 3.7092 -8.1474 -0.4658 4.7286 -5.0168 1.2130 0.0980 -4.6533 -2.6850 -3.0016 6.4465 2.7612 -1.1053 0.1102 0.9174 -1.1734 3.9901 -1.2712 -3.4176 6.0757 3.3250 -0.2702 -1.0354 -1.4847 3.6328 -4.7779 0.6322 0.8617 -3.4730 -3.5510 -2.0775 8.5644 -3.2343 2.6296 -6.1734 2.8134 -0.4074 2.5846 0.3861 -2.5066 4.4708 1.6059 0.9951 -2.3095 -1.0941 2.6137 -3.7301
-1.0370 -7.1682 4.7567 0.6742 -5.8881 3.5673 1.7934 3.5884 3.1367 3.7877 2.2561 3.6951 -1.2617 3.4532 -8.7205 -3.3727 4.7062 -8.4759 1.0820 -0.7036 -5.1374 -1.0980 -1.8057 -4.7935 -1.9597 3.8969 -1.1125 0.2301 5.0499 -1.0858 -1.7117 -2.1505 0.5161 0.9879 -2.5888 5.8145 4.0101 -0.2194 1.1551 -0.6964 -0.4968 8.1509 0.4555 -2.3035 8.9367 -3.6121 2.1303 -5.2103 2.4361 -2.8306 0.6723 -0.5968 -0.8357 3.0781 -0.4554 1.3433 -0.2775 0.7371 2.2494 -4.8781 -0.8268 -4.7642 5.1846 3.0439 2.4323 1.3527 -3.1890 2.4309 -7.5489 -1.0635 -2.5494 7.0802 2.5266 -0.8303 -0.6447 0.5934 -1.4180 0.6119 -1.6434 1.3130 -6.1518 -0.4154 -3.1282 3.3941 1.7342 2.0505 -0.6211 -0.6514 1.9413 -3.0420 -0.7318 -5.8331 4.1210 2.5864 2.3539 2.7887 -2.4431 3.7185 -7.8177 -0.3999 -0.6176 -5.4069 -0.6480 4.0793 -1.8380 -0.4136 -2.3705 5.7220 3.2593 0.2922 0.0679 -0.3697 -2.3242 1.1818 -1.0107 -3.3311 4.6994 2.3193 1.3934 0.5239 -1.0896 0.6637 -4.9884 0.0825 2.7876 -2.1375 -0.3342 -1.8007 8.1517 -2.8636 1.9527 -6.1648 1.8717 -1.8119 0.2876 -0.4958 -1.9775 2.6432 0.3879 1.9682 -0.9110 -0.2085 1.6963 -4.3258
-4.0996 -4.7081 7.6892 -4.3490 -2.5192 6.5900 6.1325 -0.5975 -1.7750 5.8026 -0.6286 0.6623 -2.1208 2.5013 -8.3167 -4.4754 3.1762 -8.0539 -1.9692 1.1154 -1.3709 -1.5249 3.5280 -1.4508 2.8898 3.4083 -5.5654 2.8927 0.9330 -5.4083 -2.6951 -0.3478 2.9420 -0.6883 -5.7157 6.6231 2.2952 2.6433 0.8355 1.9385 -4.2079 7.9923 2.0092 -2.2441 6.8318 -1.8227 0.0717 -5.6520 1.4167 0.3045 2.9939 -1.3194 -3.1273 2.5104 3.0097 3.3636 -2.5434 -1.3894 4.1477 -4.9327 -2.9324 -4.2541 5.5579 3.8858 -0.2048 -0.8385 -3.5851 1.3332 -6.6701 0.9233 -4.1719 5.8794 1.0601 0.6095 0.6203 -0.4844 -0.5629 1.9851 -2.7505 1.8415 -4.4808 -1.3157 -2.5885 4.7670 2.2636 1.2555 -1.9196 0.4443 3.3388 -3.8080 -3.3964 -3.6555 6.8664 5.3660 0.0179 -0.6301 -3.2566 2.6516 -7.3345 -2.1516 2.3707 -2.1915 2.0653 2.1840 -5.2456 -0.5139 -4.3346 6.3249 2.4275 1.2589 0.5562 -1.2718 -0.8027 3.1766 -1.4841 -3.9487 5.2258 3.1355 1.1055 -0.7776 -1.6378 2.1371 -3.6004 1.3610 2.2246 -3.9033 1.6690 -3.4135 6.9288 -2.6094 1.0103 -5.5709 0.7143 0.1230 2.0057 -1.2932 -2.2956 3.4136 2.3085 2.3737 -2.7308 -0.8744 3.3001 -4.2074
0.8536 -6.1343 4.8332 2.2174 -4.1022 4.5546 3.9503 -1.9686 -2.5542 5.8229 -1.0192 -1.2529 -4.1502 1.5436 -3.5137 -5.3797 1.7696 -5.6374 1.2928 3.7282 -7.2303 1.7397 1.3247 -7.0662 -1.0711 -0.2175 -1.5342 -1.4323 2.1448 -0.8423 -1.0220 1.0468 5.5846 -2.5733 -4.7162 5.8265 2.8951 2.5596 1.1036 -4.2487 -3.7924 3.1121 -3.3033 -1.7826 2.5943 -1.6738 4.1903 -3.9301 2.8388 0.5762 3.8028 1.1775 -1.1680 6.7657 2.1120 2.8406 -2.1429 -1.0364 0.1631 -5.5996 0.2469 -4.0706 6.0553 3.4867 -0.7032 -0.4838 -3.6210 3.4097 -5.0808 -3.1376 -2.6443 4.8389 1.5941 0.6639 1.7377 0.5186 0.4267 3.8144 -1.4197 2.9673 -5.8897 -0.3425 -1.8684 5.1649 1.6911 0.8124 -1.1060 0.3906 0.8544 -3.9162 0.8197 -4.6277 4.7700 4.3926 -0.8187 -1.6855 -4.0444 1.9620 -4.9601 0.6585 2.3771 -6.9928 -1.1027 1.2216 -1.9877 -2.0259 -3.6483 5.0628 2.8531 1.1431 1.0535 0.3234 0.4585 5.2408 -0.8561 -3.0484 5.8235 2.9417 0.7038 -0.3942 -0.1038 2.3968 -5.6818 0.1253 1.6594 -2.7515 -3.5417 -2.6711 3.3987 -2.1397 3.5622 -4.8756 1.7582 0.5666 3.2257 0.4356 -0.9342 5.8137 1.4139 1.8415 -1.9800 -0.3240 1.0216 -5.0877
2.6132 -3.2930 8.8540 2.4611 -0.9097 8.2381 6.0334 -0.1794 0.2765 4.9591 2.0587 0.3856 -1.8960 4.2594 -10.6627 -4.0780 3.1386 -10.4636 0.0102 4.6874 -5.4050 -2.1249 5.9167 -5.3190 -0.1818 -1.2826 -4.1971 0.5315 0.5823 -5.6323 0.0695 -4.1110 2.8191 -1.8864 -4.9727 6.7670 2.2602 -1.9150 -0.1556 -4.3473 -3.2456 8.1365 -3.2980 -1.3131 8.7381 -4.1481 3.5338 -7.1272 -0.4172 -1.5503 1.5587 2.2899 -4.1405 5.3997 1.0033 2.4817 -1.5861 -2.8439 1.6514 -3.5873 0.5191 -2.3769 7.8818 4.1400 0.3035 -1.2713 -2.4058 2.9034 -8.6690 -2.4205 -2.6541 6.9321 1.5804 -0.2363 1.4850 1.2197 -1.9236 3.1577 -2.0618 2.8948 -6.3330 0.1816 -3.1848 5.5895 1.7610 0.3055 -1.6911 -0.5953 2.1857 -3.6959 2.0271 -2.3070 7.8748 5.2994 0.8860 -0.4960 -2.9815 3.8429 -9.7015 -1.3715 4.7189 -4.7915 0.5413 0.0432 -4.2203 -1.4682 -3.7525 7.3553 2.5762 -0.6640 0.4241 1.2365 -3.3507 3.4072 -0.0162 -3.4818 6.9943 2.7623 0.4083 -0.6429 -2.1770 3.4543 -5.0125 -0.0476 0.9609 -3.1582 -3.3642 -2.3181 8.0463 -2.9916 3.1721 -7.3132 0.6961 -1.3301 2.0281 1.3077 -3.5960 4.8983 0.9662 1.3609 -2.0903 -1.9232 2.3381 -4.0255
-1.8130 -7.4118 6.7677 -3.2174 -5.6913 5.7305 4.3513 2.5620 2.9626 1.9376 2.1171 2.9281 -2.7910 5.6614 -8.5657 -2.2304 3.5820 -9.7532 -0.3844 -0.9381 -6.4629 -2.2304 -1.5444 -4.9165 2.6908 4.1274 -4.4025 0.3414 4.8293 -4.5581 -2.6107 -1.6234 2.5799 1.6533 -4.3950 6.4355 2.6531 -0.5615 1.3884 0.2238 -0.6219 7.5245 1.9975 -1.4619 8.6860 -2.8497 3.5452 -5.4526 0.7822 -3.0145 0.4714 -0.0546 -1.3088 4.3472 0.1302 3.2379 -1.0462 -0.0190 -0.0033 -3.5766 -0.7470 -5.4457 5.7672 3.3211 2.0321 0.7946 -1.5189 3.9023 -7.4174 0.3213 -2.9512 7.7913 0.8780 -0.7297 -0.2633 -0.4121 -1.3715 1.6124 -1.3977 1.8837 -6.2099 -0.6175 -3.5628 4.2924 2.0326 1.9191 -1.2408 -0.2996 2.2778 -3.6818 -1.9578 -5.9258 6.5300 3.0906 2.6895 2.1391 -2.6171 4.1693 -8.4174 -1.6844 -0.4836 -5.8392 1.3615 4.1342 -3.6875 0.6304 -3.4169 6.3879 2.2015 -0.0941 0.1266 -1.2312 -2.2222 2.4407 -0.6235 -3.9341 5.6955 2.0970 1.4288 0.1277 -1.6094 0.8857 -5.1815 1.0037 2.7240 -3.2421 0.9688 -1.6252 8.0469 -2.0421 3.1020 -6.2614 0.4266 -1.8522 0.6299 -0.5841 -2.2728 3.8040 0.9781 2.6693 -1.7277 -0.5292 0.9839 -4.1038
-3.2752 -4.8683 7.5387 -1.3942 -6.4200 7.2068 4.8577 0.5740 -1.9088 5.0084 -0.4097 0.3350 -4.7256 5.8216 -4.9592 -4.2813 3.6873 -6.0829 2.2551 3.6989 -3.3990 2.8040 4.3338 -5.7122 -1.5757 -0.8288 -5.9411 0.8131 -1.3084 -6.3190 -2.8291 -1.3606 3.7520 1.7471 -3.3720 7.5721 1.0949 -2.9045 -0.3149 1.5637 0.4776 7.5840 -0.4898 0.5917 8.5667 -1.2463 4.1083 -7.5171 -1.9962 -2.7840 0.7009 0.0036 -0.8514 4.8262 2.4960 0.1450 -3.9630 -0.7936 2.6952 -3.4240 -0.9490 -4.0590 7.7178 3.2027 -1.1084 -1.1805 -2.6303 5.5598 -6.2170 0.7503 -1.4744 8.6167 -0.4340 -1.0861 0.0572 -0.8681 -1.5909 2.3451 -0.5693 4.7047 -5.3765 -0.5782 -2.9907 5.4998 1.1415 -0.9985 -2.4742 0.2632 1.3596 -5.0046 -1.8751 -5.0051 6.9941 4.0560 0.0556 -0.7395 -3.6445 4.8452 -5.3506 1.7225 4.3355 -4.6601 -0.2402 -1.0395 -5.2710 0.8292 -2.3145 7.3646 1.0167 -1.5085 -0.0724 -1.5538 -2.1333 3.4967 -0.5332 -2.8276 6.9347 1.7311 -0.7400 -1.1761 0.4653 3.7097 -5.2268 0.1042 0.0963 -4.3212 0.5100 -0.0399 8.2584 -1.4238 4.6995 -6.4568 -1.1842 -1.9331 1.0495 -0.6251 -1.8932 4.6602 1.3856 -0.2084 -3.5782 -0.1063 2.5599 -4.4305
-4.0546 -5.2912 7.2067 -4.6767 -3.7476 5.3699 6.0746 -1.5084 -1.9352 5.9235 -0.8692 0.4487 -5.3442 0.9749 -7.0229 -4.0580 2.3360 -8.6186 -1.7378 1.4304 -1.0998 -1.0018 3.7790 -1.0132 3.1540 3.6821 -5.2581 3.0221 1.2055 -5.3719 -2.4160 -0.4738 2.9977 -0.0239 -5.4689 6.6442 2.7334 2.2360 0.9582 -0.2074 -1.8106 7.6264 1.1182 -0.9500 5.9877 -2.1442 0.7049 -5.4054 1.7586 -0.2912 2.9214 -0.9669 -3.3527 2.2585 3.3658 3.2692 -2.2687 -0.9679 4.6140 -4.5171 -2.5686 -5.0346 5.2490 3.9604 -0.6023 -1.0433 -3.5626 2.4904 -6.2074 0.7998 -3.3296 6.1121 1.3488 0.3256 0.6187 -0.2813 -0.7665 1.9175 -2.6365 2.5215 -4.0444 -1.5721 -2.9575 4.4583 2.4935 1.1482 -1.8901 0.7682 3.5618 -3.4394 -3.5353 -4.3247 6.1716 5.4665 -0.5403 -0.9521 -3.9908 1.5690 -7.3225 -1.8156 2.7716 -1.7903 2.2674 2.4748 -5.0576 -0.4517 -4.1642 6.2775 2.7559 0.8743 0.5631 -1.0344 -1.0779 3.1072 -1.2830 -4.2592 5.0122 3.3828 0.7760 -0.8158 -1.4329 2.5972 -3.2477 1.6027 2.4087 -3.6956 0.5942 -1.9070 6.5399 -2.7072 1.7741 -5.2012 1.0006 -0.2575 1.9601 -1.1659 -2.5832 3.1932 2.5947 2.3575 -2.5514 -0.5485 3.6854 -3.8301
1.8874 -4.2018 10.3000 1.3381 -5.3733 8.2217 3.9075 1.2486 -0.7170 5.0147 -0.8396 -0.0047 -4.6966 5.4499 -9.4502 -2.7072 4.3070 -10.3103 0.2566 6.0447 -4.0227 2.1560 4.6093 -4.7234 -1.4923 -1.5499 -3.4077 -2.9376 0.2440 -4.2198 -0.3483 -5.2981 3.9451 0.6125 -0.3408 7.5911 1.2087 -0.6403 1.0393 -3.3595 0.3583 7.2617 -3.2074 -1.7062 6.3023 -1.5685 2.9411 -7.8312 2.8849 -3.0153 2.4769 -0.7370 -2.1802 4.4212 1.6778 0.1379 -3.9833 -1.3802 3.6189 -3.4721 1.0949 -2.9026 8.3803 3.0364 -0.9570 -1.4538 -2.8185 5.0134 -7.9338 -1.6358 -1.0333 8.0126 1.6275 -2.9660 0.4353 0.6375 -3.6057 2.5183 -1.3038 4.5690 -6.1934 0.6859 -3.0989 6.0105 0.8005 -0.0163 -1.8364 -0.3493 1.8502 -4.5687 0.9519 -4.2160 9.1127 3.6920 -0.1933 -0.3300 -3.6015 4.4687 -9.1036 0.7912 5.1270 -5.0937 -1.5099 -0.2511 -4.1808 -0.3890 -1.2565 7.1918 1.0314 -1.6249 0.0389 0.5959 -4.1212 3.8705 0.0814 -2.7005 7.2681 1.5394 -1.1453 -1.3142 -0.1501 4.0198 -5.5213 -0.6133 0.8196 -3.5798 -2.7978 -0.8622 7.0858 -1.8385 4.0328 -7.3468 1.8051 -3.1818 1.9181 0.0717 -3.0318 4.7756 0.7482 0.2734 -3.1922 -0.6931 3.1761 -4.3869
-1.0593 -6.5254 6.9101 0.5262 -6.3746 5.0282 6.0521 3.3983 -2.5662 7.3851 1.9985 -1.0408 -6.1937 2.1841 -6.6374 -4.8520 1.2509 -8.4771 1.2576 -0.2827 -5.1271 -0.6150 -1.5685 -4.1733 -1.5739 3.8168 -1.1632 -0.2318 2.2990 0.2502 -0.2916 -1.6223 1.4834 -2.6725 -3.1414 7.1352 5.0678 1.1026 1.5003 -4.1660 -3.8672 2.9895 -5.0511 -2.8855 4.8492 -3.6462 1.8865 -4.2376 3.1701 -0.1862 3.5536 -0.9254 -0.5653 4.4130 2.8455 3.8843 -2.2841 0.3715 2.8331 -4.8639 -0.0759 -4.3438 6.3095 4.9574 1.5890 -1.2872 -3.7336 2.3745 -6.5850 -2.9748 -4.1184 4.9801 2.7642 1.4802 1.8699 1.0531 0.0207 2.6341 -1.8388 1.3498 -5.5984 -0.2123 -2.7749 4.4175 2.5734 1.9293 -1.0729 0.1847 1.8857 -2.7529 -0.5758 -5.6632 5.7704 6.0391 2.6442 -1.2600 -4.8961 1.4978 -6.9889 -0.2462 -0.3941 -5.0461 -0.1746 3.3895 -0.7904 -2.2590 -3.0566 5.7825 3.7993 1.0390 0.8549 0.5803 -1.3424 2.6858 -0.7483 -3.1297 5.7062 3.8264 1.9692 -0.3484 -0.9730 0.8428 -4.5590 0.6320 3.0359 -2.0166 -4.1722 -3.5343 4.3027 -3.1014 1.8360 -5.3350 2.3875 0.3323 2.7644 -0.2626 -1.4798 3.9323 2.1258 3.0115 -1.8025 -0.0759 1.9746 -4.1090
-3.2076 -5.3378 7.8035 -1.0615 -6.0221 6.8112 5.3311 1.8619 -3.4104 6.4327 1.9890 -1.2133 -5.8151 2.5256 -4.7855 -5.0517 0.2048 -5.1206 -0.5133 5.9353 -5.2693 1.7926 5.1351 -5.1442 1.1478 -1.2705 -4.0219 -0.8778 -0.9098 -2.6300 2.7217 -3.0507 4.8477 -3.8001 -2.0579 6.9890 4.3378 0.1040 1.3174 -4.4521 -1.5054 3.3481 -2.2368 -1.3345 2.8287 -2.3910 2.6638 -3.4507 1.4563 -2.5843 1.2734 0.8227 -0.9526 5.8690 0.8519 2.1344 -1.1328 0.9735 1.9501 -6.5064 -1.4565 -3.6508 7.3872 4.5517 0.4288 -1.5602 -3.4991 2.0764 -5.5167 -2.9842 -0.9477 5.0855 1.9999 -0.2458 1.2380 1.8197 -1.4489 3.2701 -1.3945 3.1364 -5.4911 -0.5835 -2.7178 5.3180 2.1517 0.2892 -1.6271 1.3439 1.7264 -4.2384 -2.0926 -4.9240 6.8759 5.1154 1.7830 -1.9191 -4.6426 1.5832 -4.6639 0.4020 4.7823 -5.6220 0.0506 -0.3038 -3.6519 -2.9266 -2.2335 5.8808 3.2933 -0.3232 0.4514 1.4796 -2.5300 4.1632 -1.5244 -2.5082 6.3929 3.2724 0.5864 -0.7656 -0.0900 3.4970 -4.9803 0.5292 1.0716 -3.2495 -3.1491 -1.2822 3.6392 -2.3913 2.6448 -4.6760 1.7329 -1.5672 1.8996 0.5614 -1.9525 5.2074 1.1864 1.2326 -1.8990 0.7829 2.3193 -5.3513
-3.3311 -3.5849 7.4254 -1.2087 -2.3662 7.3341 5.4853 3.8672 -2.2606 6.5405 2.0715 -0.9563 -4.6482 2.0338 -7.1866 -4.7732 -0.1307 -8.3564 2.1518 -0.1358 -4.0227 0.7027 -2.0727 -3.5291 -2.2329 3.8966 -1.7813 -1.7596 2.6573 0.3046 2.6667 -1.4424 4.9857 -2.6392 -2.1691 2.4056 4.5533 1.6095 1.8391 -1.1091 -6.2315 2.5247 -2.3591 -5.6968 0.6924 -3.2879 0.2159 -4.5169 0.5657 2.0464 3.8724 0.9389 -2.0291 2.4969 0.9613 1.1480 -0.0270 0.2930 2.3761 -4.3811 -2.4394 -2.8899 5.2443 4.1064 2.3894 -0.8466 -2.8642 0.3565 -6.8940 -2.6827 -4.5176 2.7717 2.5847 2.5832 2.7057 2.0789 0.3425 3.4566 -1.1149 0.1922 -5.3456 -0.5290 -1.7749 4.2773 1.9428 3.2432 -0.2095 -0.4250 1.6302 -2.3032 -2.0667 -3.3860 6.6225 5.4341 3.0987 -0.9623 -4.3454 0.5588 -7.0845 0.8231 -0.7889 -4.3111 -1.1521 3.4627 -0.8207 -1.8427 -3.2621 2.8377 3.2328 1.9817 1.4750 1.5451 -0.6339 4.3784 -1.3041 -3.0034 4.2402 3.2727 2.9449 0.2932 -0.4035 0.0734 -4.0955 0.0033 2.7751 -1.5295 -2.0452 -5.5142 1.8587 -2.4883 0.2434 -5.4443 1.6230 1.6419 3.3942 0.6530 -1.5676 3.5969 1.0141 2.2688 -0.5267 -0.1212 1.4889 -3.6417
-4.6832 -2.7936 6.7731 -4.6651 -2.3508 4.3527 6.5070 -1.5691 -2.0771 6.0600 -0.0597 -0.1988 -2.1204 1.4242 -6.5304 -4.5076 0.8803 -6.6790 -1.8085 2.7674 0.0056 -1.6729 4.8957 -1.2085 1.4874 3.1159 -6.4100 1.5826 0.6652 -6.0371 -1.3819 0.2978 2.7092 0.7751 -3.9978 5.1243 2.8481 2.3762 -0.0799 0.9581 -4.9229 7.9410 -0.3385 -3.7342 9.3806 -1.3861 -0.1473 -3.2229 2.2448 0.5068 2.2588 -1.1097 -2.9288 2.0646 3.2062 3.0016 -3.7393 -1.7278 4.1944 -4.3201 -2.9592 -3.8404 5.3506 4.3264 -0.4370 -1.9478 -3.2583 0.2126 -4.6663 -0.3747 -3.1775 7.0379 1.8067 0.2177 -0.1013 0.4535 -0.7863 1.5552 -2.6045 1.8110 -3.0017 -1.3400 -2.2782 4.2786 2.5486 0.9914 -2.7773 0.3368 3.3775 -3.6800 -3.8007 -2.6025 5.5650 5.8064 -0.2955 -1.6697 -3.3945 1.2714 -5.7380 -2.1489 3.4650 -1.2906 0.9363 1.9606 -5.6117 -0.4785 -4.0323 5.7938 3.0706 1.0063 -0.3651 -0.3024 -0.7577 2.7828 -1.5587 -3.5863 4.8333 3.5908 0.8756 -1.7847 -1.5811 2.6667 -2.4455 0.9706 2.1548 -4.1103 0.0469 -3.9682 8.2436 -2.2987 0.5956 -3.5728 1.5610 0.0143 1.3686 -0.9497 -2.1091 2.9635 2.3635 2.1362 -3.5275 -1.0357 3.4927 -3.5891
1.6889 -3.9430 10.0294 2.0235 -1.5572 9.4880 -3.2633 -0.6183 0.8391 -1.2179 -1.8889 0.3692 -2.6461 1.9995 -7.5548 -2.8038 3.8333 -9.1994 2.6922 5.0371 -4.5209 3.6257 3.1728 -5.8187 -0.9805 -1.2243 -5.4740 -2.5948 0.1966 -4.2304 2.8261 -0.3438 5.0872 -1.9709 -4.4812 7.6860 2.4196 1.0289 -0.2458 -1.2981 -6.2983 5.0239 -0.4917 -4.8639 3.4448 -1.6278 3.9263 -4.5869 1.6674 -1.0594 1.6755 -0.1197 -0.0853 6.1642 0.7806 -0.8745 -2.9866 1.0835 1.8039 -7.3185 -0.0019 -2.7126 8.7056 -1.2711 0.6007 0.0665 -2.2125 4.3552 -6.8672 -1.5660 -3.9999 5.4232 1.0329 1.2796 1.6899 0.9143 -0.0654 3.6314 0.0658 4.1912 -6.1503 0.6402 -2.2658 6.3641 -0.0132 1.0424 -1.9475 0.9742 1.0706 -5.1324 1.4755 -2.8725 8.9860 -2.0429 -0.6949 -0.0471 -2.0761 3.3330 -7.9740 2.4507 4.1161 -5.6960 -1.3162 0.1779 -5.0296 -0.9296 -4.0917 6.7970 1.1109 1.3692 0.1794 1.5256 -0.9426 4.6033 -0.4008 -2.7409 7.2392 0.0921 0.5494 -0.5912 1.1138 3.4232 -5.5144 -0.1976 0.9000 -4.3108 -1.0328 -5.0685 4.5215 -1.2470 4.1223 -5.7372 1.2440 -0.0883 2.2909 0.5771 -1.0182 5.7767 0.2561 0.2333 -3.0340 1.0417 2.0367 -6.1144
-1.2199 -5.9057 9.5699 -3.2806 -5.2176 8.4024 3.5126 2.7629 -0.6008 5.0214 1.4452 0.8285 -1.0633 5.3292 -9.7950 -3.4171 5.7410 -9.1873 -3.2401 1.4531 -3.0103 -3.8054 3.8596 -2.9753 0.3375 1.0931 -7.1571 2.6130 0.4356 -6.5577 -0.0142 -4.7638 2.6849 1.1529 -3.4259 8.1580 0.1357 -0.4364 -0.8410 -1.6313 -0.3168 7.3138 -0.2356 0.4739 8.9351 -0.4849 4.7181 -6.4177 0.6717 -0.4778 2.3493 1.5689 -3.3433 5.1192 1.2250 -1.2691 -3.8076 -0.0652 3.0385 -2.9299 -1.0707 -4.8926 7.3249 3.8147 0.3250 -1.0002 -2.1311 3.9846 -8.0187 -0.5801 -1.8958 8.7018 1.7266 -1.5897 0.4788 1.2502 -2.7146 2.5076 -1.9696 3.0238 -5.8627 -0.7413 -3.4245 5.3844 2.0030 0.5472 -2.5898 -0.3562 1.2727 -4.3930 -1.8269 -4.8903 8.6344 3.7317 1.4160 0.0457 -2.0594 5.3492 -8.6615 -3.2520 2.7318 -3.8103 1.1677 0.3757 -6.1191 0.1287 -2.6290 7.5859 1.4560 -0.3365 -0.3279 0.1296 -3.3392 3.1726 -0.8640 -3.4832 6.8219 2.4717 -0.2122 -1.4547 -1.9314 3.1307 -4.4279 1.0185 0.9609 -4.7232 -0.7596 -0.4565 8.3411 -1.4376 3.9940 -6.6855 1.1365 -1.5020 1.8613 0.4326 -3.3691 4.6566 1.4192 -0.0633 -3.6840 -0.6877 2.4933 -3.8398
-3.1755 -2.3717 8.4550 -4.8582 -2.2677 6.6691 5.6829 -1.2317 0.2887 6.8505 -0.2282 -1.6209 -4.1060 0.3063 -8.7535 -2.6370 2.2245 -8.2045 -1.3765 4.4209 -4.2338 -3.6920 4.0421 -3.4864 2.7501 0.4791 -4.7180 1.5685 2.5715 -5.2462 -1.1244 1.1376 4.5465 0.8299 -4.1279 5.5545 2.8831 -0.2921 1.1990 -2.0688 -6.0515 2.8018 -0.2124 -6.7091 3.9525 -4.3620 1.6257 -5.4355 0.1764 1.7096 1.4242 1.1506 -1.3139 5.1244 2.1148 3.3394 -1.3585 -1.0943 0.3272 -2.3233 -2.6529 -3.2248 6.1892 5.3603 1.1769 -0.2478 -2.8226 0.2250 -6.6302 -0.8294 -4.3741 3.8518 2.4812 1.9797 2.0169 0.9671 0.7595 3.3964 -2.0901 1.7089 -4.9396 -1.1239 -1.7680 4.9550 3.0542 1.2301 -1.1308 0.1802 2.1701 -2.8852 -3.3824 -2.1624 6.9747 5.5736 -0.2098 -0.8169 -2.8432 0.7370 -8.0536 -2.2597 3.5897 -3.3304 2.2870 1.8041 -4.1617 -0.5673 -4.1508 5.3255 3.4111 1.0128 1.3143 -0.2722 0.1353 3.8007 -1.2068 -2.8859 5.8761 3.9084 1.5460 -0.0129 -2.1449 2.0935 -3.5542 1.4911 1.5697 -2.8894 -0.9792 -5.8359 3.5768 -3.2068 1.2532 -5.6070 1.0809 1.4684 2.2169 0.0284 -1.0384 4.7112 2.2359 2.1730 -1.7207 -0.9776 1.4269 -2.8601
1.4307 -2.1664 10.1663 -0.2421 -0.5705 9.3230 3.3214 2.8335 -1.7127 4.0383 2.0416 0.5040 1.1271 6.7807 -7.3511 -0.9376 7.0987 -6.0475 1.6310 0.1189 -8.0007 -0.4488 -1.1204 -7.6013 -2.8715 -1.8791 -3.4843 -3.4190 -0.1188 -1.8244 -3.2742 -0.3398 4.8380 1.7943 -4.5210 7.5748 -0.1769 1.9015 0.7425 0.5776 -4.2188 3.0891 2.2266 -2.9275 3.9921 1.2309 3.6398 -5.7347 0.6967 0.0251 3.5476 -2.3103 -3.0740 5.1160 -0.1177 -1.5557 -2.3563 -2.4369 1.1373 -6.0053 -0.2507 -2.9050 8.5183 2.5252 0.6624 -0.8556 -0.4144 4.8852 -6.9939 1.0564 -4.5677 5.3429 -0.2638 -0.3966 1.3776 -1.4312 -0.8920 3.3663 -0.3160 2.5300 -7.0621 -0.5662 -2.0503 6.2607 0.2106 0.6325 -1.6608 -0.8988 0.0518 -4.6542 0.6235 -1.7524 8.9610 2.8939 2.0778 -0.4790 0.1724 6.1323 -6.3788 0.1478 0.2596 -7.7498 -2.8101 -0.4027 -3.1747 1.2036 -3.7019 6.5756 0.5876 0.7096 0.8002 -1.8206 -0.7374 4.7455 -0.1559 -3.1997 7.0332 1.0875 0.3046 -0.5697 -0.0799 1.1901 -6.5726 -1.4375 0.2255 -3.3262 1.3720 -3.7939 4.1010 0.2756 3.6426 -6.5021 -0.2514 -0.3680 2.8790 -1.6238 -2.0910 5.3753 -0.3935 -0.3615 -2.4056 -1.2823 0.8307 -5.7271
-0.5781 -6.6658 5.6600 1.2467 -5.6266 4.3877 0.2474 -3.7091 1.3470 1.9356 -2.6247 -0.0686 -3.5115 3.4272 -4.1463 -4.4562 5.2486 -5.4902 2.8969 4.3326 -6.0443 2.0532 2.4157 -7.3224 0.5691 -1.5186 -5.7821 -1.4670 -2.0594 -4.4730 3.6200 0.2027 4.8767 -2.1794 -3.4793 6.5132 0.7741 1.8381 0.1404 -3.2077 -1.1372 4.7260 -2.1301 0.7978 5.2451 -0.3200 4.9969 -3.1489 2.4265 -0.0217 1.7162 2.1087 -0.9828 6.8567 1.5742 -0.7372 -2.9489 -1.0847 2.0086 -6.2975 0.3933 -4.5434 6.4439 -0.4306 -1.7021 0.0891 -2.2383 5.5507 -4.4656 -1.5073 -1.2310 6.3745 0.0647 0.4399 1.9647 1.4542 -0.0388 3.8223 -0.2822 4.5593 -5.4253 1.1725 -2.5056 5.3816 -0.3283 -0.1474 -1.7525 0.4137 1.2339 -4.6999 0.0192 -5.3516 5.2209 0.4636 -2.9231 0.0770 -3.1781 4.5490 -5.0990 1.6509 3.6708 -6.5842 -0.6469 -0.9533 -5.0889 -1.2229 -2.6351 5.8837 -0.0576 0.7437 0.4858 2.5165 -0.7550 4.4871 0.1836 -3.0514 6.2794 0.2041 -0.4310 -0.4383 0.6613 3.4654 -5.4537 -0.3523 0.1638 -4.1059 -2.2763 -0.4086 5.3845 -0.8584 4.9923 -4.2519 1.4507 0.1032 2.4476 1.9150 -1.3905 5.7153 0.4325 -0.2914 -2.8964 -0.1341 2.1815 -5.5422
-4.6269 -4.3346 3.7609 -4.8862 -2.0172 4.5403 6.3720 0.3403 -1.1861 6.0688 2.5500 -0.1655 -3.2669 -1.9008 -6.8451 -4.6714 0.1380 -7.0751 0.0194 -1.7306 -2.5119 -1.5139 -0.7382 -0.8376 -0.7736 5.6905 -1.8499 -1.9403 3.9390 -0.5799 1.2081 -0.3119 5.6974 -0.9315 -3.5862 1.4251 4.1968 1.3612 2.0446 0.8745 -5.6087 4.6192 0.7749 -6.5368 2.5370 -2.9783 1.7702 -5.0434 0.1027 2.7889 3.1498 1.2474 -1.5083 2.8399 2.3973 4.3088 -1.7189 0.7986 1.1315 -3.6730 -2.9657 -2.6273 3.1283 4.0767 1.0902 -0.7401 -2.1644 0.3489 -6.7973 -0.9810 -5.0675 3.2977 2.3072 2.7584 2.2244 1.5501 1.0845 3.7661 -1.5880 -0.0178 -4.5220 -0.9800 -1.2883 3.4435 1.9755 2.2647 -0.7251 -0.4092 2.0935 -1.9425 -3.8867 -3.1032 4.2250 5.4675 1.5487 -1.1229 -3.3170 -0.4740 -7.3262 -1.2792 -0.9877 -2.3073 -0.5905 4.4121 -1.0667 -0.6966 -3.6632 2.8202 2.9669 1.6717 1.4018 0.6022 0.2078 4.4146 -1.5171 -2.6313 3.5776 3.2330 2.1279 -0.0230 -1.4049 0.2849 -3.1217 0.1816 3.4090 -1.9067 0.3090 -5.8163 3.4063 -2.3236 0.7848 -5.3664 1.1838 2.2133 3.0668 0.3616 -0.9642 3.4929 1.6297 3.3880 -1.4428 -0.2123 1.2072 -2.9820
-0.5551 -5.6456 4.0565 1.0610 -5.6533 5.9174 4.9126 0.2899 -3.1665 5.8583 -1.5225 -1.7947 -0.5537 6.9839 -4.6716 -1.7969 6.5852 -6.7645 -1.6116 2.3352 -1.4675 -3.8511 3.2196 -2.0276 0.6048 -3.2567 -4.0598 -1.0714 -2.6881 -2.3330 2.7716 -0.7402 5.4250 -2.8007 -1.0341 4.5799 0.7872 0.3880 0.3290 -3.7498 0.1609 7.2057 -1.5080 0.2683 7.6226 -2.5633 3.3439 -6.3308 2.5111 1.9124 2.5923 1.0041 -2.3345 3.0126 1.7398 0.1620 -4.2916 -2.9233 0.1150 -5.2280 -0.6420 -3.8619 5.7815 3.4139 -1.1590 -1.8182 -0.7338 4.6915 -5.5755 -2.5106 -1.8025 6.8883 3.1391 0.4491 0.8131 2.7908 -0.3449 3.0446 -1.5588 2.8659 -4.2920 0.0182 -1.6410 4.9973 1.1135 -0.5636 -2.1819 -1.4137 -0.0878 -3.4924 0.2569 -4.7803 4.9869 4.7641 -0.4849 -1.8801 -1.4453 6.0157 -5.4103 -2.8548 2.1187 -2.2997 -0.6011 -2.4042 -3.7413 -2.3737 -2.0910 5.4087 2.0297 -0.2409 0.0424 1.9325 -0.4418 4.2036 -1.0290 -2.6347 4.9800 2.3053 -0.1883 -1.4553 -2.5923 1.9990 -3.7873 -0.3782 -0.9301 -4.0391 -2.4966 -0.3537 7.2637 -1.7331 3.5793 -5.4590 2.7661 0.7676 2.2328 0.9600 -1.5814 3.9816 0.9359 -0.3748 -3.5340 -2.3285 0.5902 -4.2636
0.6148 -5.5974 8.3492 1.6140 -3.4025 8.8491 2.5581 -1.2760 -1.2956 2.1851 -2.8547 0.5567 -1.1959 5.6791 -8.2692 0.4790 5.9541 -6.4528 2.9325 0.5913 -5.5232 2.8903 2.4618 -3.9073 -3.8204 2.5239 -3.8768 -3.6431 0.2500 -2.9271 -1.6186 0.9523 5.1035 1.3839 -4.6271 4.5952 -1.8453 -2.6684 0.9432 3.9776 -1.6887 3.8918 3.6612 -0.8732 5.9993 -0.7354 2.4517 -7.6549 -4.0659 -1.2410 2.8008 0.5318 -0.6908 3.6915 -1.0835 2.0037 -0.2648 -0.0828 3.7338 -3.9595 0.0677 -3.6688 6.9185 0.2665 -1.9524 -0.6948 0.8219 4.1879 -8.2255 3.0359 -3.1414 5.4746 -2.9802 -0.5270 0.7911 -2.0882 -0.0300 2.9432 1.1065 2.8495 -6.2900 -0.5344 -2.1998 5.0981 -0.9317 -0.0077 -1.4063 -0.9742 1.6095 -3.6965 1.1500 -4.3215 7.7469 1.6402 -1.6403 -0.1540 0.2554 5.5482 -7.8873 2.0684 1.3788 -4.5677 -3.2679 1.6997 -2.7383 1.6361 -3.2749 4.9235 -2.0555 -1.5305 0.1266 -1.7718 -0.3287 4.3193 0.5853 -2.7096 5.8630 -0.7342 -0.8931 -0.2768 0.8120 1.8901 -5.2502 -1.7854 1.9375 -2.5524 3.5718 -1.7766 5.1804 0.2811 3.0749 -7.3701 -3.1146 -0.6669 2.2811 -0.4545 -1.0602 4.3211 -1.2315 1.3315 -1.2827 -0.1123 2.5401 -4.2440
-3.0330 -4.9470 7.6352 -3.8664 -4.2402 5.4397 4.9917 1.4060 2.4965 2.9611 0.0644 2.7902 -4.5330 4.4266 -7.4787 -2.8870 3.2935 -8.9586 -2.3734 5.0312 -2.5571 -0.0020 5.6182 -3.0161 3.0842 0.6670 -4.2308 1.9506 -1.5164 -3.9033 -1.9382 -2.7293 0.9540 0.6924 -2.3742 6.7553 4.1525 -2.2445 0.8387 -0.6599 1.2455 5.1097 0.6964 1.2757 6.9432 -1.0849 2.2215 -6.7553 1.9221 -4.3937 1.0919 -0.1254 -1.0900 2.9080 0.1593 0.4044 -0.8052 -1.5897 2.1403 -2.4174 -1.5031 -3.8315 6.0822 3.9218 0.4982 0.4933 -3.4865 2.2854 -6.7055 -0.8439 -0.5522 6.6041 2.3781 -2.8368 -0.6766 0.4615 -2.6268 0.7045 -2.1751 3.2651 -4.9914 -0.7125 -3.0830 3.9455 2.3960 0.1686 -1.3188 0.5123 1.9775 -3.3842 -2.9308 -3.8804 6.5694 3.6617 1.0431 1.8787 -3.9342 3.1078 -7.8914 -1.2547 4.9935 -3.5706 1.7519 -0.0348 -4.1164 -0.1729 -1.6885 5.8703 3.4118 -1.7999 -0.2854 -0.6027 -3.0526 1.5792 -1.1959 -2.6150 5.2299 2.8381 -0.4059 -0.0611 -1.0097 3.6442 -4.2204 0.7976 0.5825 -3.1141 -0.1613 0.7354 6.2611 -2.1068 2.6020 -6.1948 1.5890 -3.3842 0.4806 -0.4632 -2.2682 2.8600 1.0726 0.3831 -1.6294 -0.7566 2.5141 -3.2385
-3.9393 -4.2681 5.7313 -3.1947 -3.9051 3.4161 -0.4131 1.5819 1.2285 1.5314 2.7560 2.1836 -3.5735 3.0852 -7.8892 -4.2785 2.2931 -5.6423 0.2478 4.8419 -2.0596 -1.5694 3.2834 -1.4198 3.6061 -0.2058 -4.4363 2.2490 -2.1129 -5.2420 0.3567 -4.9392 2.0497 -0.4244 -2.3534 7.4341 3.4915 -0.1749 1.5492 -0.4305 1.2631 7.8368 -0.7219 1.6398 5.6053 -0.9223 3.9995 -6.4166 3.9924 -3.1731 1.9719 -0.4781 -1.9611 2.1422 0.5783 -1.6792 -2.1838 -1.5129 0.9494 -3.9521 -1.6207 -3.5491 5.2918 1.7876 1.4972 0.0644 -3.1962 4.5481 -5.8827 -1.5088 -0.4131 6.5988 3.4561 -1.9950 -0.0485 1.8140 -3.2210 1.1682 -1.6992 3.6890 -4.2497 0.3195 -2.5166 4.2479 2.0847 0.0446 -1.8333 0.7904 1.1584 -4.1081 -3.0574 -3.4262 4.8411 1.0837 1.5438 1.4034 -4.0725 3.4968 -6.5271 -0.3045 3.4467 -2.2314 2.2489 -0.6355 -4.9365 -0.4951 -1.4967 6.3061 3.3408 -0.4970 0.1786 1.1756 -3.7100 2.3685 -0.8609 -2.2606 5.0441 2.0435 0.0675 -0.3841 -0.4850 3.1293 -3.7032 1.0994 -0.2481 -4.0328 -0.8384 0.9254 6.5897 -1.8116 4.0495 -5.5741 3.1392 -2.8437 1.1540 0.2509 -2.6275 2.8706 1.2161 -0.7109 -2.5925 -0.4947 1.6339 -3.9303
-1.5819 -4.8044 7.5910 0.0710 -3.0209 7.2246 6.4578 0.2965 0.1116 5.7215 2.3978 1.1421 -3.9096 -0.2291 -7.5144 -5.4252 1.4046 -6.4082 0.5733 -1.5528 -5.2928 -0.1191 -1.7374 -2.9189 -1.2395 4.5134 -2.9876 -0.8976 3.7405 -0.6638 -1.0252 0.7323 5.8669 -3.0100 -4.5426 3.4774 3.1318 1.1574 2.6341 0.9275 -4.5112 1.5646 -0.7205 -5.7407 0.5763 -3.1607 1.9112 -4.3446 -1.0033 1.8201 1.8201 0.9518 -1.1463 4.3539 2.8853 3.9390 -1.6837 1.3278 1.3185 -4.6767 -1.7706 -3.3567 5.6055 4.0702 0.8603 0.0207 -2.9950 1.9766 -6.7380 -0.8106 -5.2653 2.9406 1.2807 2.5026 2.0691 0.0803 1.4551 3.8405 -1.4455 0.7595 -5.4097 -1.2124 -1.7940 3.8267 2.0867 1.9588 -0.7921 0.1925 1.8358 -2.7194 -0.8063 -4.0433 6.5437 5.4702 1.4352 0.0050 -4.1977 1.2300 -7.2665 -0.4813 -1.1887 -4.2766 -0.2112 4.1541 -1.9425 -1.7130 -4.0737 3.1572 2.2156 1.4182 1.5759 -0.8359 0.4858 4.3900 -1.1462 -3.1748 4.2384 2.9825 1.8688 0.3411 -0.8102 0.2856 -4.2079 0.7724 3.1302 -2.4669 -0.2363 -5.2048 1.5606 -2.5767 1.5458 -5.3595 -0.0074 1.8836 2.5331 -0.2375 -0.8870 4.1981 2.0225 3.0656 -1.6106 0.3647 1.1907 -3.9282
-2.0082 -2.5639 10.0858 -2.0585 -0.9199 8.2644 4.1920 0.0812 -0.1841 2.4860 -0.2229 1.5537 0.0802 -0.1019 -5.5929 -0.3606 -0.8939 -7.8752 -2.3363 6.0448 -6.9204 0.0877 6.3573 -6.8052 2.8399 4.7966 -2.7879 3.8584 2.5441 -2.9602 -1.8184 -0.5293 4.4345 -0.2047 -5.1143 8.6697 -1.8222 0.2729 -1.1280 2.8204 -4.9121 7.1467 2.5545 -5.9103 5.1190 -2.7408 2.1039 -5.0720 -0.7736 0.3833 1.6787 -1.9876 -3.8206 4.0245 0.4647 3.2478 -1.5509 1.3212 3.4359 -6.5770 -2.1156 -3.3348 7.7488 1.8577 -0.3941 -0.8368 -1.9651 0.6438 -6.8020 0.6482 -5.6688 6.5565 -0.7171 -1.4608 0.1186 -1.2855 -1.7604 2.4070 -1.5466 2.9997 -6.8437 -0.7337 -2.9529 5.7731 0.6811 1.0798 -2.3472 0.5607 3.7231 -4.4002 -1.5502 -2.2802 8.6751 2.7422 0.3114 0.1660 -0.5037 0.2746 -6.9324 -1.0036 5.3495 -7.0788 2.8439 3.4919 -3.5461 0.1233 -4.5374 7.4138 -0.6392 -0.5061 -1.0583 -0.9743 -1.6234 3.8146 -1.1085 -3.9209 6.7761 0.5851 0.3927 -1.0773 -0.9599 4.1371 -6.1712 1.4812 2.8516 -3.7128 2.0861 -5.5004 6.1717 -2.1343 1.9784 -6.1312 -0.9151 -0.8163 1.4679 -1.3092 -2.9235 4.5148 0.8221 2.4521 -2.4134 0.4358 3.7156 -5.7759
-4.5561 -3.4404 3.4647 -4.8171 -1.1953 4.4551 5.4120 -2.9470 -0.4549 5.5678 -1.7826 1.7165 -3.5699 1.1072 -6.5260 -4.6468 3.3033 -6.2019 -1.0842 2.6897 -0.0561 0.7127 3.6818 -1.3967 -0.5892 -1.1362 -4.6924 1.5534 -0.3827 -5.6834 -2.0632 1.7850 4.4579 -0.9625 -3.2769 1.8065 2.9359 2.0527 0.3098 2.0258 -4.2142 2.4025 2.1603 -3.5104 4.5703 -3.0949 0.1473 -3.0476 2.1225 1.4090 3.4733 0.4216 -0.2171 5.8999 3.3903 0.1550 -3.1065 -0.4838 3.0455 -4.6822 -2.9395 -1.6567 2.9201 3.5184 -1.5784 0.3473 -4.2998 1.8203 -4.2630 0.8312 -2.2859 2.9720 1.3452 0.5937 1.3356 -0.1536 1.2588 3.0363 -2.4357 2.3663 -2.8846 -1.3613 -1.0053 4.6834 2.1057 -0.4260 -1.2622 0.9475 1.5634 -3.6652 -3.8229 -2.2371 4.0011 5.0213 -1.7106 0.3132 -3.7274 2.2771 -5.5855 -0.7290 3.2349 -1.4201 0.8552 -0.8065 -4.4133 -0.6213 -2.7100 3.0669 2.7593 0.7437 0.8227 -0.6332 1.3085 4.3947 -1.4881 -1.4902 3.3286 3.1244 -0.2526 -0.2572 -1.0549 2.1988 -2.4801 0.9785 0.1758 -3.2653 1.7255 -3.3901 3.4355 -3.2096 1.3293 -3.3537 1.1876 1.1425 2.7270 -0.4554 -0.0401 5.0552 2.3017 -0.0155 -2.5656 -0.2045 2.3177 -3.7327
-2.4333 -2.4944 8.9590 -0.0636 -2.9947 8.5389 7.4678 1.7139 -1.8238 7.3303 -0.1719 -0.2379 -5.7182 -0.2421 -6.8131 -3.3001 -0.0891 -7.1985 -3.1578 3.9948 -1.8748 -1.2663 5.3187 -2.7733 2.5105 -0.0270 -5.0902 0.0739 -0.0739 -5.2020 2.6387 -3.4404 3.8822 -3.2630 -1.2651 4.8018 4.6505 1.5028 1.2008 -5.0755 -3.2260 6.1386 -3.6792 -4.9846 6.5339 -2.5807 3.1091 -6.8000 2.1011 0.5341 2.5520 -0.1987 -3.0994 2.7258 2.9659 2.9205 -3.2882 -1.6618 1.3130 -2.5539 -1.4349 -1.9161 6.7906 5.3285 0.4754 -1.5256 -4.5796 1.8854 -6.3250 -3.4195 -3.6695 4.5319 3.2680 -0.3634 0.6322 2.1724 -1.7564 2.2058 -3.0880 2.5769 -4.5958 -0.1659 -1.9567 4.7460 3.0129 0.9589 -2.0431 0.1976 2.4223 -3.3852 -1.4347 -2.9259 7.9118 6.5799 0.9856 -0.8484 -4.4340 0.3785 -6.3167 -2.4139 4.4041 -3.1235 1.2638 0.8015 -4.8743 -2.5333 -2.4504 4.5844 3.6470 1.0647 0.3006 1.8760 -2.1792 3.5544 -1.2834 -2.5734 5.4335 4.0966 1.2732 -1.1367 -1.9604 3.2442 -3.9867 1.1423 1.3276 -3.4533 -4.0320 -4.0378 5.8471 -3.3012 2.5856 -5.9562 2.4579 -0.4417 1.9011 0.4009 -2.4860 3.6033 2.4562 1.8665 -2.9229 -1.1594 2.2080 -3.2267
-3.5531 -3.5224 5.0681 -3.1567 -5.6491 3.8951 2.5927 2.9545 2.6608 4.4885 1.4125 2.9507 0.3758 1.7672 -7.9533 0.4983 0.3493 -5.9163 -5.2482 1.6115 -3.4217 -3.9344 -0.3034 -2.5833 0.1088 5.1013 -3.7825 0.4211 5.5251 -1.3672 -0.9174 -1.3801 1.1703 1.3393 -1.7906 4.9329 4.3026 -0.7839 0.0918 -2.1854 -1.7855 7.2622 -0.4268 -0.4302 7.7810 -1.8069 3.0859 -5.8284 2.1500 -3.2966 -1.0974 1.9459 -3.1532 2.3603 0.5423 2.8610 0.1493 -1.0404 0.5498 -2.2602 -1.2595 -4.4710 4.9423 3.6520 1.9028 0.6873 -1.7464 0.9489 -6.9249 -0.0480 -2.5391 6.6756 2.6228 -1.0101 -1.6295 1.2763 -1.6220 0.2491 -2.4768 1.1715 -4.6861 -0.2653 -3.3971 2.9806 2.1654 1.9164 -1.2148 -1.0193 2.8649 -2.1847 -2.5770 -4.2951 4.2190 3.2567 1.7070 2.1320 -0.2822 0.6622 -7.1685 -3.9734 1.2014 -2.7248 0.7360 4.5889 -2.5090 0.0394 -2.3153 5.1799 3.5393 -0.0690 -0.8660 0.2022 -2.3541 0.8731 -0.1214 -3.6159 4.4043 2.7668 1.0645 -0.2118 -2.7597 1.7955 -3.4159 0.3980 3.1332 -2.2480 -0.8733 -1.4549 7.2893 -1.9950 1.8762 -5.7685 2.0031 -2.1125 -0.8110 0.7492 -2.9732 2.1488 1.0147 2.6360 -0.9609 -1.5207 1.6365 -2.5692
-2.2792 -1.7793 9.2690 -0.3523 -2.9992 8.3537 7.4621 1.7312 -1.3094 7.1650 -0.1790 0.2260 -5.6539 -0.6472 -6.3236 -3.2208 -0.8904 -6.1668 -2.1748 4.1340 -1.5619 -2.0544 5.6140 -3.5286 2.7174 0.1718 -5.0092 0.2958 0.0003 -5.2270 2.3559 -3.2773 4.0110 -3.4659 -0.9527 4.7894 4.4071 1.6974 1.4327 -3.5524 -4.1572 2.7534 -3.1320 -5.5983 4.4699 -2.0381 2.1881 -6.6511 1.7739 0.7013 2.6037 -0.4711 -2.9109 2.8844 2.9412 3.0538 -3.0505 -1.6045 1.1840 -2.5911 -1.7276 -1.5476 6.8850 5.2867 0.5341 -1.2076 -4.2683 1.3872 -6.3249 -3.7584 -3.3229 4.9497 3.1257 -0.2281 0.8273 1.9092 -1.5944 2.3328 -3.0575 2.4831 -4.5832 -0.4225 -1.6850 4.8558 3.0276 1.0354 -1.9037 0.2142 2.4229 -3.3174 -1.7478 -2.5051 8.0542 6.4862 1.0042 -0.4196 -4.3933 -0.0195 -5.7816 -2.5140 4.2661 -3.0292 1.4219 0.9241 -4.8173 -2.7948 -2.1924 4.6802 3.4877 1.2001 0.4747 1.6170 -2.0010 3.6870 -1.5568 -2.2518 5.5545 4.0467 1.3624 -0.9296 -1.9659 3.1736 -3.9290 1.2140 1.3787 -3.3830 -3.4349 -4.4853 4.0617 -2.9893 2.0463 -5.8882 2.2007 -0.2854 2.0146 0.1365 -2.2749 3.7403 2.4707 1.9576 -2.7670 -1.1325 2.1329 -3.2104
-2.4650 -4.4546 1.1766 -0.0305 -4.7206 1.4111 5.7118 -1.8853 -3.6843 6.4099 -0.6899 -1.6554 -2.9668 1.9818 -5.3622 -5.3146 1.2530 -5.4203 -1.7774 1.0000 1.1124 -1.9793 3.4208 0.7597 0.4588 3.6963 -5.1325 0.8809 1.2593 -5.3584 1.3789 0.2330 4.5652 -1.2570 -1.7151 6.1716 3.9662 2.1430 0.0230 -4.2114 -1.4082 6.2211 -5.1558 -1.2742 4.1570 -1.6232 -0.5132 -2.9671 4.3504 0.0122 2.3139 1.9698 -3.1349 4.8431 2.5789 3.2276 -2.8020 -2.5165 3.8229 -2.4156 -1.4181 -4.2149 3.3963 4.0222 -0.6625 -2.3717 -3.7247 0.0637 -3.9549 -2.7581 -1.4522 4.3460 2.8095 0.0959 0.4510 2.1830 -0.8030 2.5140 -2.9528 1.0662 -1.9152 0.1332 -2.2854 3.7108 2.2572 0.9998 -2.2044 -0.3004 3.1755 -2.2967 -1.2413 -3.9706 1.9152 5.4619 -0.6671 -2.8313 -4.0956 1.4054 -4.5459 -2.3657 2.0654 0.2162 0.1691 2.3283 -4.5671 -1.9043 -2.4278 5.1263 3.8817 0.7815 -0.3579 2.1215 -0.9268 3.9456 -0.8588 -3.1392 4.2991 3.6256 0.7014 -1.8509 -1.9288 1.8042 -1.2101 0.4122 2.1980 -3.0804 -4.1663 -1.3893 4.8669 -2.6420 0.1695 -2.9140 3.2394 -0.2168 1.8540 1.4159 -2.2310 4.2211 1.8663 2.2368 -2.6827 -1.6503 3.0409 -2.0361
-2.9392 -3.8056 7.5534 -4.4876 -2.6743 6.0188 4.7651 -1.7535 -3.0425 5.7975 -1.2668 -0.8512 -0.9458 -0.8676 -5.8090 -3.0904 -2.0586 -5.7116 -3.5056 3.0706 -0.8871 -2.7196 4.8574 -2.3721 2.5089 5.5750 -2.8400 3.3074 4.4950 -4.9300 -3.1673 1.0490 2.4995 0.0963 -3.3928 2.5968 2.6788 2.1340 0.9207 1.9087 -5.1622 4.2181 2.0127 -4.5617 6.4063 -0.4329 -0.1018 -2.3758 0.9021 0.1872 2.7008 -3.1686 -1.8256 1.9238 3.9196 3.0306 -2.3230 -0.9286 3.5280 -4.5528 -2.6011 -3.9920 5.1234 3.4095 -0.7330 -1.2402 -2.2102 -1.0547 -3.6537 0.4979 -3.3944 4.9376 0.8688 0.6896 0.3348 -1.1071 0.2032 1.5387 -2.1247 1.2819 -3.1633 -1.9766 -1.8949 3.9156 2.3877 1.3258 -2.0491 0.5032 3.2914 -2.7363 -3.0488 -3.0755 6.2381 4.7810 -0.8068 -1.8674 -2.3074 -0.8947 -5.1549 -2.9522 3.3681 -2.2618 2.1800 4.5849 -3.9329 -0.4336 -3.8421 3.8361 2.3723 0.8519 0.3964 -1.9805 0.1367 2.6856 -1.8475 -3.3272 3.9913 3.0662 0.7034 -0.9426 -1.7248 2.5089 -2.5044 1.7711 3.2142 -3.4267 1.5263 -4.4316 5.2906 -1.4752 0.0796 -2.9961 0.2618 0.3367 1.6665 -2.4550 -1.2912 2.7673 2.8056 2.5532 -2.5278 -0.6979 3.1525 -3.4078
-4.8955 -1.8396 2.1839 -2.7475 -1.5972 1.0130 3.2064 6.5717 0.0054 1.0811 5.7147 -0.8934 -2.7437 2.5001 -0.8116 -4.3933 0.7162 -0.4240 -1.7993 -2.5593 -5.6224 0.4015 -2.9225 -4.6095 3.6966 0.6950 -5.4300 4.2081 2.7451 -4.2029 2.9166 -2.7748 2.6320 -3.4731 -3.4551 5.5184 2.1144 3.1477 1.7770 -0.1421 -2.1189 7.3848 -1.6641 -3.4375 8.4573 -2.2006 1.8227 -4.5046 3.1882 0.2538 2.2754 0.6062 -4.2395 2.5986 0.2982 3.0876 -2.8103 1.0234 -0.6245 -2.7560 -2.9825 -3.2633 2.8094 3.1412 4.2157 -0.7256 -3.6411 1.1748 -2.7133 -1.2054 -3.7776 6.1152 1.4772 1.0814 0.7931 1.3731 -1.1003 1.7792 -1.8215 -0.2005 -3.4284 -0.7034 -2.4770 3.3298 2.1908 2.2606 -1.7781 0.9917 0.8155 -4.5816 -3.3950 -1.8846 2.3465 2.5836 5.6020 -0.9689 -3.2138 1.1397 -1.2639 -0.9189 -2.2076 -4.4453 3.3458 1.5024 -4.1996 -2.1586 -3.0032 5.2263 2.3708 2.3045 0.6604 1.6030 -2.0509 2.8479 -1.8141 -3.2825 3.7757 2.1190 3.1009 -0.6061 -0.8114 -0.6997 -4.3336 1.8765 1.8813 -4.1593 -1.0657 -3.1073 7.4446 -2.4768 0.9924 -3.6439 2.1223 0.0607 1.6967 0.4684 -3.0510 2.8773 1.3658 2.4788 -2.8601 0.4975 -0.1909 -3.7752
-1.6950 -1.4332 7.0630 -3.3966 -0.3328 5.6586 4.5680 3.4130 1.7027 3.9147 1.2738 2.7345 -3.2135 -2.8316 -3.8549 -0.9015 -3.6012 -3.5190 -2.0040 2.0186 -1.7200 -2.9689 3.6624 -3.3244 0.9740 6.3032 -1.4213 3.1279 5.8239 -2.5546 -2.6259 0.4084 1.0151 -0.8541 -5.0330 3.0549 3.4275 -1.1126 -0.3281 0.9153 -5.2107 6.1673 2.4041 -5.0793 4.4447 -2.8633 0.0669 -5.5749 1.0217 -2.0435 0.7403 -2.6326 -2.5783 1.1479 1.1877 3.7083 -0.1112 0.9783 2.4582 -4.8266 -2.6617 -2.6281 5.1291 3.8896 1.5220 0.2792 -1.3253 -1.6625 -4.9726 0.4781 -3.6315 4.4746 1.2412 -0.7763 -1.2938 -0.7561 -0.7543 -0.0052 -1.0191 0.5877 -4.2564 -1.4405 -2.0090 3.0559 2.3120 2.1516 -1.4204 0.1327 3.6667 -3.0590 -2.2239 -1.2826 5.6591 3.6474 2.2228 1.5944 -1.7751 -2.3880 -3.7240 -2.3716 2.2901 -3.1541 1.6510 5.5240 -2.5191 -0.9076 -4.1621 4.1735 2.6190 -0.1981 -1.0402 -1.4285 -0.4848 1.2443 -1.9250 -3.0788 3.8866 2.5754 1.1718 -0.3909 -1.2814 2.0047 -4.1598 1.4032 4.0378 -2.5019 1.3741 -4.7153 4.9930 -1.8421 -0.2537 -4.9750 0.5320 -1.2459 -0.0526 -1.9204 -1.8049 1.7796 1.5984 3.3117 -1.1951 0.0605 2.7046 -4.0431
2.0418 -3.7970 4.9921 2.3317 -1.4249 4.3978 4.6968 -3.5573 -0.3404 5.7274 -1.6598 0.8361 -4.8613 1.5493 -1.5915 -4.2492 1.5984 0.7908 0.1733 3.9410 -5.7445 -2.0432 2.8598 -5.9978 2.2680 -2.3782 -4.8732 1.0107 -0.8359 -6.3034 -1.3517 2.8917 3.8287 -1.7473 -4.0941 4.5527 2.4775 1.9969 -0.1431 -2.7176 -3.9913 1.3134 -2.6704 -1.7480 0.9024 -0.9145 3.3601 -0.8175 1.2099 1.6015 2.8946 -2.6777 0.5527 5.1650 3.5238 0.5017 -3.1374 -1.3845 0.4246 -4.2769 0.2313 -2.1880 5.4621 3.3272 -1.5878 0.2419 -2.4832 1.5492 -0.9257 -2.8642 -2.5563 3.1641 0.9031 0.4600 0.7890 -0.9299 1.2445 2.0543 -1.8664 2.7859 -2.8530 -0.9232 -0.5317 4.1280 2.1306 -0.5797 -1.6280 0.8490 1.0234 -4.1070 1.3389 -2.5568 4.4982 4.6978 -2.0555 -0.1937 -3.8611 2.0699 -0.5877 -1.0921 3.5297 -5.0346 1.9512 -0.9218 -5.1224 -1.5400 -2.8964 3.8132 2.3594 0.7192 0.4659 -1.7304 1.5669 3.2120 -1.0686 -1.8151 4.7710 2.9520 -0.3122 -0.4743 -0.7798 2.7187 -3.7952 1.3688 -0.3003 -3.8649 -2.7288 -2.6873 1.6806 -1.6609 2.6648 -1.4970 0.4503 1.1785 2.0307 -1.8349 0.4879 4.2709 2.4692 -0.0631 -2.8632 -0.5092 1.2618 -4.0832

>  <OB_ATOM_TYPES> (1psoA1)
C.3 C.3 C.3 C.3 C.3 C.3 C.3 C.3 C.3 C.3 C.3 O.3 O.3 O.co2 O.co2 O.2 O.2 O.2 O.2 O.2 C.3 C.3 C.3 C.3 C.3 N.am N.am N.am N.am N.am C.3 C.3 C.3 C.3 C.3 C.3 C.3 C.3 C.3 C.3 C.3 C.3 C.2 C.2 C.2 C.2 C.2 C.2

>  <ENSEMBLE_RMSD> (1psoA1)
2.307 2.315 2.578 2.939 2.965 3.043 3.088 3.123 3.128 3.171 3.194 3.212 3.236 3.319 3.331 3.351 3.390 3.394 3.423 3.451 3.459 3.518 3.529 3.573 3.590 3.606 3.613 3.652 3.698 3.721 3.741 3.754 3.756 3.758 3.815 3.828 3.853 3.873 3.908 3.919 3.974 3.995 4.001 4.105 4.169 4.295 4.407 4.509 4.670 5.081

$$$$
