
 OpenBabel03071213D

 17 17  0  0  0  0  0  0  0  0999 V2000
   46.2950   11.4910   -0.3740 N   0  0  0  0  0
   45.9940   13.7470   -1.6080 O   0  0  0  0  0
   46.2490   17.1420    6.3360 O   0  0  0  0  0
   45.1630   15.1320    6.8120 O   0  0  0  0  0
   43.8010   13.7560   -1.8080 O   0  0  0  0  0
   43.7720   16.7930    5.4770 O   0  0  0  0  0
   44.1060   11.9360    0.6190 C   0  0  0  0  0
   46.1130   15.5330    4.4770 O   0  0  0  0  0
   45.7610   12.5110    2.4070 C   0  0  0  0  0
   44.1420   14.1470    1.7850 C   0  0  0  0  0
   46.2590   13.3940    3.3730 C   0  0  0  0  0
   44.6050   15.0220    2.7260 C   0  0  0  0  0
   44.8920   11.9130   -0.6660 C   0  0  0  0  0
   44.8720   13.3090   -1.2960 C   0  0  0  0  0
   44.6960   12.8860    1.6120 C   0  0  0  0  0
   45.6640   14.6530    3.5270 C   0  0  0  0  0
   45.2500   16.2030    5.6380 P   0  0  0  0  0
  1 13  1  0  0  0
  2 14  1  0  0  0
  3 17  1  0  0  0
  4 17  1  0  0  0
  5 14  2  0  0  0
  6 17  2  0  0  0
  7 13  1  0  0  0
  7 15  1  0  0  0
  8 16  1  0  0  0
  8 17  1  0  0  0
  9 11  2  0  0  0
  9 15  1  0  0  0
 10 12  1  0  0  0
 10 15  2  0  0  0
 11 16  1  0  0  0
 12 16  2  0  0  0
 13 14  1  0  0  0
M  END
>  <MOLID> (1ptvA1)
1ptvA1

>  <SMILES_CANONICAL> (1ptvA1)
OC(=O)[C@H](Cc1ccc(cc1)OP(=O)(O)O)N	

>  <FINGERPRINT> (1ptvA1)
0000000000100000000000000000000000000000000000000000000000001000001000000000000000000001000000000000000000000001000001100000000000000000000000000000000000010100000000000000000000000000000000000000001000000010010000000000000000000000000000000000000000000000000010000000000000001000000000000000000000001000000010000100000000001000000100000000000000000000010000000100000010110000000000000000010000000000100000000000001000000000000000100000000000000000000000000000000000000000000000000000000000001000000000000000100000000000000000000000000000100000000000100000000000000000000000000000000001000000000000000000100000000000000000100000000000000001000000000000000000000001000000000001110000000000000010100000000000000011000000000000000001000000100000010100000000000000000100000000000000000000000010000100000010000000000000000000000000000000000000100001001000000000000000000000000000000011000000000000000000000110000000000000000000000000000000000000011000000000000000100000000000000000000000000000000000100000000100101000010000000000

>  <MACCS166> (1ptvA1)
000000000000000000000000000010000000000000100001010001000000000000000000000100000001000001000010001001010100001110000000001101100110000100110110010100110111111010111000

>  <OB_MW> (1ptvA1)
261.04

>  <OB_logP> (1ptvA1)
0.8128

>  <OB_PSA> (1ptvA1)
139.89

>  <OB_MR> (1ptvA1)
58.1733

>  <OB_ATOMIC_CHARGES> (1ptvA1)
-0.1204543701 -0.2440385005 -0.1038940787 -0.1038940787 -0.2440385005 -0.2114431275 0.0569349568 -0.3997691916 -0.0010823047 -0.0010823047 0.0371051843 0.0371051843 0.1986352296 0.3822011779 -0.0199607062 0.1490123541 0.5886630762

>  <MCT_HBD> (1ptvA1)
4

>  <MCT_HBA> (1ptvA1)
7

>  <ENSEMBLE_TOTAL> (1ptvA1)
50

>  <ENSEMBLE_COORDS> (1ptvA1)
0.4545 -3.0982 -3.5976 0.2920 0.3011 -3.9848 1.1510 3.3738 3.8856 -0.3889 1.5705 4.9664 -1.3156 -1.1469 -4.7027 -1.0087 2.7300 2.8605 -0.6675 -1.9597 -1.7899 0.8811 1.0521 2.7300 0.7340 -1.6101 0.2766 -0.8673 0.0808 -0.4001 1.0587 -0.9061 1.3782 -0.4858 0.8567 0.7622 0.2653 -1.8008 -2.9707 -0.3581 -0.8903 -3.9882 -0.2659 -1.0963 -0.6475 0.3988 0.3607 1.6463 0.1224 2.1827 3.5758
0.4748 -3.0949 -3.6886 -1.3418 -1.2023 -4.5169 0.7788 3.5636 3.8128 -0.0556 1.3750 4.9593 0.2451 0.3258 -3.9527 -1.2839 2.4112 3.0639 -0.5676 -2.0753 -1.7468 0.9160 1.2986 2.5246 0.7274 -1.6065 0.3681 -0.8152 0.0518 -0.5006 1.0380 -0.8137 1.4121 -0.4414 0.9261 0.5924 0.3290 -1.8548 -2.9458 -0.2297 -0.7986 -3.8562 -0.2294 -1.1521 -0.6300 0.4065 0.4882 1.5402 0.0490 2.1578 3.5643
0.4917 -2.7062 -4.0115 0.9018 0.4894 -3.6475 1.1228 2.8340 2.0670 0.8391 2.5184 4.6443 -1.2378 -0.2590 -3.8913 -1.1142 2.8793 3.1576 -0.3811 -2.2139 -1.8228 -0.0084 0.6518 3.0233 0.4660 -1.9416 0.5348 -0.9445 -0.2314 -0.4475 0.5437 -1.2533 1.6901 -0.8627 0.5124 0.7908 0.4864 -1.7036 -2.9572 -0.0761 -0.4469 -3.5619 -0.2804 -1.3931 -0.5864 -0.1237 0.0313 1.8049 0.1773 2.2324 3.2134
1.4492 -1.8718 -3.2474 -0.6752 -2.9364 -4.5167 0.8633 2.2945 5.1377 -1.1447 0.9991 4.0801 -1.4567 -0.8240 -4.8264 -0.5299 3.2969 3.3434 -0.4871 -1.6541 -1.7874 1.0144 1.4767 2.6533 1.0128 -1.1327 0.1481 -0.8512 0.3428 -0.3469 1.3603 -0.3913 1.2156 -0.4641 1.1569 0.7902 0.1561 -1.2222 -3.0872 -0.7309 -1.6118 -4.2337 -0.1307 -0.7474 -0.6651 0.5781 0.7813 1.5537 0.0361 2.0435 3.7886
1.7366 -1.6019 -3.1417 -0.1566 -2.2103 -4.9554 1.2613 2.7527 2.5734 0.7975 2.1759 5.0797 -1.0178 -0.1241 -4.6960 -1.0244 2.8847 3.5507 -0.3689 -1.7279 -1.9241 -0.1135 0.5950 3.2069 0.4533 -1.6673 0.4389 -0.9770 0.1210 -0.3668 0.5175 -1.1094 1.6620 -0.9197 0.7184 0.9541 0.4239 -0.9971 -2.9849 -0.3147 -1.0399 -4.2910 -0.3126 -1.0220 -0.6162 -0.1847 0.1341 1.9167 0.2000 2.1181 3.5938
0.7418 -2.7312 -3.8807 -1.0191 -0.6351 -4.3537 1.0541 2.9422 2.1531 0.7763 2.4996 4.7131 0.6182 0.6484 -3.4324 -1.1869 2.7850 3.2254 -0.4865 -2.1471 -1.8656 0.0767 0.6465 3.0077 0.6352 -1.7640 0.3620 -1.2164 -0.3517 -0.3190 0.7876 -1.0647 1.5025 -1.0722 0.3854 0.9223 0.5321 -1.6910 -2.8889 0.0816 -0.4402 -3.5874 -0.3878 -1.3752 -0.5965 -0.0811 0.0661 1.7739 0.1464 2.2271 3.2641
-0.5059 -3.3113 -3.5740 0.7833 -0.8462 -4.1871 0.4085 3.4122 4.1452 0.8445 0.8346 4.1425 -1.3051 -0.0772 -3.7104 -1.4531 1.7817 4.0152 0.5036 -2.2411 -1.6472 -0.0663 2.0429 1.9719 -0.4727 -1.2347 0.4496 1.2169 -0.0242 -0.8026 -0.6091 -0.2078 1.3097 1.0710 1.0832 0.1224 -0.5677 -2.1407 -2.7146 -0.4289 -0.9232 -3.5866 0.4563 -1.1263 -0.6630 0.2198 0.9763 1.1562 -0.0952 2.0019 3.5727
-0.7316 -3.0837 -3.3533 -1.2989 0.1961 -3.9650 1.0619 2.9872 2.8122 0.1889 2.2045 5.1458 0.3779 -0.9686 -4.9791 -1.3694 2.6628 3.2708 0.7035 -1.6426 -2.0289 0.0022 0.5925 3.1017 1.0991 -1.5951 0.4388 -0.2190 0.1706 -0.5726 0.9695 -1.0354 1.6558 -0.4095 0.7448 0.7452 -0.5560 -1.7273 -2.8662 -0.4158 -0.8302 -4.0609 0.4675 -0.9786 -0.7172 0.1900 0.1784 1.8079 -0.0601 2.1245 3.5650
-1.7262 -2.6840 -3.2131 0.9564 -2.3298 -4.2602 0.9608 2.8583 4.6738 -0.1108 0.5103 4.2687 0.0203 -0.2927 -4.6551 -1.3250 2.6176 3.7358 0.0051 -2.0490 -1.6314 0.5612 2.0340 2.2196 1.3415 -0.2716 -0.4643 -0.9729 -0.6454 0.1681 1.4719 0.6949 0.4639 -0.8467 0.4244 1.1385 -0.8078 -1.6257 -2.8343 0.0741 -1.3310 -4.0103 0.0711 -0.9638 -0.6184 0.3379 1.0394 1.3003 -0.0111 2.0140 3.7182
0.3420 -3.0419 -3.7496 0.4034 0.3656 -3.6708 1.1227 3.1650 4.2434 -0.8470 1.4559 4.3824 -1.3795 -0.8430 -4.4160 -0.6670 3.1137 2.5334 -0.6133 -2.1329 -1.7278 0.9813 1.2264 2.5027 -0.6982 0.0374 -0.4811 0.5175 -1.8284 0.4758 -0.3375 0.8357 0.5371 0.8901 -0.9705 1.5905 0.2672 -1.8457 -2.9274 -0.3481 -0.7612 -3.7670 -0.2142 -1.3319 -0.5386 0.4585 0.3037 1.6281 0.1221 2.2520 3.3850
-0.1995 -3.0454 -3.6136 -1.9212 -1.0191 -4.3426 0.5375 3.2833 2.7885 -0.3235 2.2228 5.0093 -0.2575 0.3768 -3.6794 -1.6712 2.1405 2.9256 0.9594 -1.6169 -2.1031 0.3528 0.6697 3.0194 0.5575 -1.8061 0.3797 0.9699 0.3645 -0.6230 0.3816 -1.2458 1.5917 0.8020 0.9662 0.6835 -0.3802 -1.8761 -2.7646 -0.7942 -0.7219 -3.6456 0.8222 -0.9635 -0.7759 0.4757 0.1960 1.7368 -0.3115 2.0750 3.4133
0.6932 -3.1134 -3.4756 -1.5126 -0.3978 -3.4756 0.9657 3.2035 4.4081 0.1027 0.7395 4.4945 -0.0963 -0.9821 -5.1474 -1.2589 2.5788 3.5120 -0.4851 -2.0906 -1.6505 0.7213 1.8589 2.1844 -1.1768 -0.3241 -0.0127 1.1597 -0.9626 -0.1514 -0.8957 0.6077 0.9172 1.4647 0.0474 0.8432 0.3058 -1.8300 -2.9167 -0.4487 -1.0711 -3.9780 -0.1063 -1.1295 -0.5779 0.4702 0.7696 1.3865 0.0972 2.0958 3.6400
0.3931 -3.1508 -3.3692 0.3089 0.1803 -4.2538 -1.0572 2.7541 2.9741 1.0700 3.0782 4.4571 -1.2014 -1.3808 -4.9426 -0.4360 1.1306 4.7571 -0.7997 -1.6877 -1.8298 1.0032 1.1157 2.7343 -0.9069 -1.1474 0.6216 0.7239 -0.0120 -0.7624 -0.5113 -0.4502 1.7044 1.1610 0.7314 0.4002 0.1851 -1.7697 -2.9787 -0.3335 -1.0128 -4.1658 -0.2613 -0.9248 -0.6648 0.5357 0.5501 1.5743 0.1264 1.9957 3.7441
-0.4975 -3.3880 -3.0161 -2.0155 -1.5802 -4.2820 0.1036 3.0027 4.5824 -0.4773 0.4803 4.3082 -0.5465 0.0558 -3.7287 -1.6196 2.2453 2.9671 0.8970 -1.7167 -2.0450 0.7823 1.7734 2.3958 0.3500 -1.2320 0.3723 1.4639 0.4438 -0.9816 0.2874 -0.3878 1.4186 1.3995 1.3517 0.1483 -0.5176 -2.0308 -2.4907 -0.9730 -1.0807 -3.5715 0.9278 -0.7861 -0.8859 0.7761 0.9737 1.2779 -0.3406 1.8755 3.5310
-1.1745 -3.1155 -3.3205 -0.4367 0.0591 -4.1842 0.3153 3.4944 4.1530 1.6252 1.2759 3.7233 0.9950 -1.6695 -4.5890 -0.6719 1.2757 4.6859 0.2713 -2.0427 -1.6891 -0.5075 1.8666 2.2833 -0.0647 -1.3672 0.6911 0.2740 0.3548 -0.9828 -0.2479 -0.4401 1.6484 0.0675 1.3572 0.0414 -0.6865 -1.8340 -2.8432 0.0576 -1.1865 -3.9722 0.1669 -0.9531 -0.6817 -0.1562 0.9697 1.3073 0.1732 1.9552 3.7290
0.2627 -3.1931 -3.5013 -2.4791 -1.8196 -2.9276 0.2019 2.2691 4.9973 -1.4389 0.8032 3.5886 -1.0978 -0.5054 -4.1778 -0.8294 3.1192 2.9067 0.9979 -1.2255 -2.3333 0.9517 1.3881 2.6560 1.1004 -1.2538 0.1838 0.6535 0.8244 -0.9879 1.0766 -0.6242 1.3732 0.6438 1.5090 0.2908 -0.1828 -2.1296 -2.6157 -1.2639 -1.3852 -3.3458 0.8692 -0.5026 -1.0408 0.8273 0.8044 1.4210 -0.2932 1.9215 3.5128
0.7745 -3.2020 -3.1434 -0.8969 -0.4246 -3.9849 0.3097 3.4424 4.0900 1.9027 1.9743 2.6303 1.2333 -0.7861 -4.6800 0.7534 1.0579 4.6411 -0.7670 -1.9389 -1.7977 -0.6931 1.4902 2.6683 0.0494 -1.3234 0.4937 -1.4037 0.2013 -0.7128 0.0731 -0.5058 1.5612 -1.3621 1.0954 0.4271 0.4728 -1.8634 -2.6615 0.3294 -0.9891 -3.8793 -0.7185 -0.9564 -0.6841 -0.6304 0.7646 1.5046 0.5735 1.9635 3.5273
1.3176 -0.2412 -3.2507 0.7776 -2.3736 -4.7740 1.6808 1.0953 4.1342 -0.2536 2.5523 5.0897 -1.4105 -1.7642 -4.8317 0.8641 3.1340 2.9529 -0.0731 -1.7207 -1.8863 -0.6648 1.1391 2.9475 0.8281 -0.8404 0.2754 -1.4716 -0.3610 -0.3290 0.7083 -0.1356 1.4156 -1.5955 0.4086 0.8960 -0.0003 -0.8418 -3.1178 -0.2973 -1.6779 -4.3293 -0.2977 -0.9399 -0.6401 -0.5333 0.5615 1.7066 0.4213 2.0055 3.7409
0.9400 -3.0922 -3.3499 -1.1626 -2.0020 -4.6522 -1.1075 0.9497 4.0040 -0.1891 3.3751 4.3177 -0.3037 0.0565 -4.2181 1.2850 1.3923 4.5247 -0.4178 -1.9855 -1.6654 0.5493 1.9894 2.2256 0.5844 -1.2119 0.5048 -0.7361 0.3343 -0.8201 0.7947 -0.2716 1.4447 -0.5034 1.3540 0.1868 0.4448 -1.8049 -2.8963 -0.3489 -1.1460 -3.9904 -0.1952 -0.8910 -0.6808 0.2059 1.0475 1.2871 0.1601 1.9062 3.7779
-1.1846 -0.0901 -3.5810 -1.0604 -2.8537 -4.3288 1.0418 2.9975 4.7458 -0.3517 0.7887 4.7440 0.9636 -2.0844 -5.0347 -1.0478 2.7845 3.4279 -0.4346 -1.6611 -1.8488 0.9523 1.5336 2.5862 1.0751 -1.0785 0.0823 -0.9966 0.1395 -0.2347 1.3695 -0.3502 1.1773 -0.6572 0.9569 0.9134 -0.1205 -0.9972 -3.1765 0.0109 -2.0222 -4.2685 -0.1391 -0.8019 -0.6698 0.4645 0.7002 1.6097 0.1147 2.0384 3.8561
-1.8752 -0.9332 -3.4147 -0.0837 -1.5226 -5.3983 1.0062 2.3438 5.0618 -0.8597 0.7260 4.2123 0.8411 -2.9728 -3.9150 -0.8238 3.1342 3.5848 -0.3682 -1.7489 -1.7384 0.9210 1.7071 2.5260 1.2582 -0.7741 -0.0929 -1.0317 0.0286 -0.1384 1.5522 0.0327 0.9438 -0.7059 0.9303 0.9488 -0.4604 -1.0896 -3.1014 0.1509 -1.9897 -4.1451 -0.0826 -0.7705 -0.6571 0.5239 0.8987 1.4913 0.0376 1.9998 3.8327
1.6648 -2.0578 -2.7033 -0.1958 -2.8042 -4.5871 0.3720 3.3125 4.4013 1.9306 1.7677 2.9818 -0.3278 -0.5847 -5.0692 0.5123 0.8723 4.8194 -0.5939 -1.6139 -1.8875 -0.6989 1.5764 2.7652 -0.2187 -1.2714 0.5622 -0.9752 0.5966 -0.7893 -0.2469 -0.5167 1.6758 -0.9822 1.4202 0.4071 0.4692 -1.2570 -2.9032 -0.0457 -1.4893 -4.2929 -0.5878 -0.6908 -0.7197 -0.6053 0.8871 1.5821 0.5293 1.8529 3.7572
-1.8910 -1.8499 -2.8674 0.8714 -1.1945 -4.7372 0.9064 3.0624 3.6052 0.3165 1.3602 5.4967 -0.0767 -3.2506 -4.5990 -1.3518 2.0282 3.7914 -0.1447 -0.2133 -2.5208 0.5049 0.5315 3.0248 1.2420 -0.3293 -0.4157 -0.9818 0.6447 -0.3647 1.3949 -0.1272 0.9068 -0.8275 0.8390 1.0609 -0.4474 -1.6704 -2.8082 0.1034 -2.1328 -4.1327 -0.0004 0.0540 -1.0682 0.3246 0.4964 1.6641 0.0573 1.7515 3.9643
0.6388 -0.3138 -3.8979 0.4462 -3.6344 -3.7568 0.7372 2.9666 4.8342 0.8326 0.3715 4.6184 -1.2349 -2.3985 -4.6775 -1.2246 1.6623 4.0505 -0.8617 -1.0199 -2.0965 0.7299 1.8686 2.4780 -0.3101 -0.9199 0.3644 -0.1265 1.0701 -1.0118 0.0330 -0.2218 1.4649 0.2542 1.8168 0.1665 0.2599 -1.4229 -3.0341 -0.2739 -2.4989 -3.9289 -0.3859 -0.2462 -0.9225 0.2669 1.2110 1.3651 0.2189 1.7092 3.9841
0.5127 -3.1103 -2.6843 -1.8188 -2.9100 -4.0234 0.0713 1.5260 5.2357 -1.6057 0.9546 3.3161 -1.4164 -0.6931 -4.2938 -0.5417 3.1971 3.5062 0.6920 -0.7408 -2.4548 0.9516 1.3431 2.7782 1.6440 -0.7015 -0.1295 -0.0262 0.9382 -0.7754 1.6892 -0.2100 1.1229 0.0449 1.4893 0.5636 -0.2821 -1.8997 -2.5203 -1.1879 -1.7475 -3.7169 0.7246 -0.1285 -1.1019 0.8361 0.9071 1.4824 -0.2875 1.7859 3.6950
1.4849 -2.6492 -3.0873 -0.9358 -2.4104 -4.5135 0.2046 0.3662 4.2445 -0.4591 2.8389 4.7688 -0.2260 -0.2562 -4.7135 1.7548 2.2634 3.8085 -0.3707 -1.9161 -1.6989 -0.1996 2.0880 2.2779 0.8717 -0.5262 -0.0009 -1.5196 -0.2356 -0.2804 0.9114 0.4337 0.9397 -1.4872 0.7781 0.7599 0.5442 -1.5674 -2.8529 -0.2275 -1.3250 -4.1160 -0.3842 -0.8510 -0.6595 -0.3201 1.0791 1.3556 0.3581 1.8897 3.7680
-0.4880 -3.0562 -3.5528 0.8874 -0.7985 -4.6122 1.2937 2.6605 2.7160 0.1592 2.2494 5.0348 -1.1049 0.1796 -4.1104 -1.1232 3.1155 3.0962 0.7524 -1.7434 -1.9206 -0.4743 0.7155 3.0137 -0.1651 0.1759 -0.5639 0.7045 -1.7887 0.5589 -0.4375 0.7686 0.6120 0.4342 -1.1413 1.8315 -0.4193 -1.7710 -2.8793 -0.2767 -0.7021 -3.9248 0.4010 -1.1646 -0.5954 -0.0847 0.0995 1.8497 -0.0587 2.2012 3.4464
1.4009 -2.0395 -4.1206 -1.0588 0.0727 -3.9271 1.4248 1.3575 3.8719 -0.7535 2.3937 4.8586 -1.5506 -2.1402 -3.6752 0.4008 3.4259 2.9192 0.7355 -2.0249 -1.7951 -0.8188 1.2942 2.4907 -0.6558 -1.5267 0.2267 1.1097 0.0135 -0.4043 -1.0261 -0.7334 1.2488 0.6888 0.8881 0.6741 0.6579 -1.2942 -3.1217 -0.7607 -1.2109 -3.6018 0.4420 -1.1308 -0.6409 -0.3130 0.5079 1.4864 0.0769 2.1471 3.5104
1.1091 -2.4649 -2.0929 0.5450 -0.9841 -5.1059 0.8149 3.0213 4.5682 1.9689 1.1028 3.2234 -0.3278 -2.9961 -4.4872 0.1019 0.6596 4.8059 -0.9081 -1.0829 -2.1496 -0.5263 1.8014 2.6866 -0.6068 -0.9565 0.3290 -0.8455 1.1003 -0.9344 -0.4870 -0.2755 1.4818 -0.7206 1.8400 0.3131 0.4204 -1.4005 -2.8101 0.1595 -1.9134 -4.1968 -0.7675 -0.2439 -0.9284 -0.5084 1.1758 1.4643 0.5782 1.6166 3.8330
-0.1953 -3.2480 -3.4387 -0.7272 -1.2309 -5.1000 1.5790 1.5925 3.6120 -0.5233 2.1332 5.0707 0.4796 0.1787 -3.7961 0.0662 3.5008 3.0838 0.7778 -1.8017 -1.8101 -0.8579 1.2431 2.6397 0.7660 0.3178 -0.4766 -0.4598 -1.6126 0.3399 0.3889 1.0484 0.5880 -0.8597 -0.8304 1.4925 -0.3085 -1.9169 -2.8608 -0.1008 -0.8877 -3.9458 0.3133 -1.0576 -0.6109 -0.4113 0.4285 1.6305 0.0728 2.1430 3.5820
-0.2850 -3.5141 -3.0502 2.0313 -1.2657 -3.2773 0.9137 3.1791 4.3064 1.8158 0.8890 3.4297 0.1401 -0.9120 -4.5016 -0.4544 1.1145 4.4264 -1.2031 -1.5418 -2.0037 -0.1398 2.1135 2.1619 -0.4174 0.6970 -1.1598 -1.2359 -0.9655 0.4077 -0.1321 1.5508 -0.1592 -0.9680 -0.0306 1.4833 0.0652 -2.2316 -2.4631 0.7106 -1.4170 -3.5456 -0.9513 -0.6243 -0.8612 -0.3982 1.1570 1.2114 0.5085 1.8017 3.5947
-0.5367 -2.7147 -4.0527 1.3230 -0.5531 -3.5254 -0.5606 2.9419 4.3349 -0.0966 3.1528 1.7717 -0.6747 0.5360 -3.5940 1.6692 2.4431 3.3748 0.0639 -2.3684 -1.7323 -0.1278 0.7790 2.9391 1.0798 -0.7623 -0.1138 -1.2171 -1.4738 0.2184 1.0322 0.0164 0.9812 -1.2697 -0.6332 1.4028 -0.6293 -1.7803 -2.9433 -0.0241 -0.4810 -3.3957 -0.0878 -1.5322 -0.5115 -0.1985 0.1036 1.7461 0.2548 2.3262 3.0995
1.0875 -2.5177 -2.8125 -0.2215 -0.1007 -4.8735 0.5460 2.0175 5.2357 -1.1704 2.4793 3.3208 -0.7905 -2.3069 -4.9237 1.2013 3.2163 3.1660 -0.9006 -1.3904 -1.9608 0.8109 0.7667 2.9597 -0.0757 0.5386 -0.5526 -0.6285 -1.5800 0.4938 0.3407 1.0452 0.6218 -0.2052 -1.0264 1.7690 0.2482 -1.3386 -2.9499 -0.3124 -1.3449 -4.3415 -0.5385 -0.8389 -0.6264 0.2465 0.2392 1.8258 0.3620 2.1416 3.6484
-1.3949 -0.2079 -3.8795 0.0229 -1.9812 -5.1743 0.6203 3.1848 2.6118 0.9844 2.2760 5.0344 1.7300 -1.9571 -3.6830 -1.2443 2.2136 3.9472 -0.7715 -1.5676 -1.9707 0.4571 0.6016 3.0925 0.7707 -1.2556 -0.0031 -1.3465 -0.0720 -0.0777 1.0624 -0.7222 1.1986 -1.0428 0.4875 1.2251 -0.2674 -0.7454 -3.1362 0.6008 -1.6095 -4.0079 -0.4741 -0.9063 -0.6718 0.1248 0.1924 1.8240 0.1680 2.0690 3.6704
1.7767 -1.5260 -2.8583 0.2453 -2.2656 -4.9077 1.6502 2.2816 2.6693 0.7503 1.9761 5.1057 -0.8561 -0.2802 -4.8273 -0.5365 3.2295 3.3922 -0.4969 -1.6479 -1.9567 -0.4629 0.7619 3.1394 -0.8234 0.3553 -0.4503 -0.1628 -1.7841 0.4870 -0.7771 0.9361 0.7623 -0.1242 -1.1642 1.7969 0.4409 -0.9568 -2.9229 -0.1104 -1.1031 -4.3100 -0.4734 -1.0493 -0.5963 -0.3719 0.1507 1.9152 0.3321 2.0861 3.5616
0.7432 -2.7328 -3.7449 -1.4411 -0.1863 -3.5318 0.4164 3.1280 2.0871 1.0515 2.6484 4.5777 0.4741 -0.0125 -4.7383 -1.2709 2.3489 3.7504 -0.5468 -2.0505 -1.8249 0.3940 0.6585 3.0230 -1.2772 -0.5148 0.0165 0.9448 -1.4916 0.0859 -1.0463 0.1648 1.1550 1.2024 -0.7459 1.2996 0.3891 -1.5904 -2.9210 -0.1684 -0.5347 -3.8365 -0.2388 -1.3664 -0.5416 0.2610 0.0794 1.7860 0.1129 2.1981 3.3577
0.4249 -2.8597 -2.6127 0.5594 -1.4677 -5.0880 1.2531 2.7139 3.3637 0.2497 1.5642 5.4839 -1.6894 -1.7425 -4.8838 -1.2006 2.6472 3.7888 0.3913 -0.4120 -2.4135 -0.1517 0.4901 3.1361 -0.6084 0.8289 -0.4560 1.0551 -0.8901 -0.0660 -0.7112 1.0669 0.8661 0.9310 -0.6520 1.3585 -0.3392 -1.6540 -2.8913 -0.5831 -1.6199 -4.3739 0.2936 -0.2044 -0.9401 0.1141 0.3186 1.7998 0.0114 1.8723 3.9285
1.4458 -2.2155 -2.4786 0.1875 -0.0593 -4.8419 1.9567 1.5718 2.9274 0.6561 1.7794 5.1838 0.0101 -2.3294 -4.9244 0.2483 3.3415 3.3018 -0.8187 -1.4182 -2.0525 -0.6303 1.0299 3.0355 -0.5956 0.6183 -0.5730 -0.9283 -1.5689 0.4209 -0.5112 1.1913 0.6413 -0.8497 -0.9508 1.7337 0.4691 -1.1947 -2.8204 0.1983 -1.3003 -4.2928 -0.7844 -0.8200 -0.6883 -0.6045 0.3672 1.8333 0.5509 1.9578 3.5941
-1.0854 -3.1148 -3.0515 0.2140 -1.1967 -4.7286 -1.7020 1.8852 2.7705 -0.0481 3.3509 4.1677 -1.5082 0.0536 -3.9248 -0.4047 0.9507 4.6752 0.6669 -1.8423 -1.9475 0.9072 1.4614 2.6310 0.1000 -1.3482 0.4625 1.4349 0.2255 -0.8112 0.1320 -0.5460 1.5437 1.4678 1.0932 0.3525 -0.6937 -1.7876 -2.6092 -0.7211 -0.8755 -3.8020 0.7549 -0.9356 -0.7697 0.8012 0.7420 1.4653 -0.3156 1.8843 3.5762
-1.2599 -3.0902 -3.3809 1.7963 -1.5506 -3.1129 -0.8792 2.8145 3.5153 1.4110 2.4704 4.7265 0.3305 -1.2101 -4.8254 -0.2068 0.6097 4.4611 -1.2995 -0.9669 -2.2141 0.9910 1.3436 2.3992 0.2786 0.6306 -1.0759 -1.2689 -0.6773 0.2561 0.8204 1.1797 0.0266 -0.6870 -0.0850 1.4468 -0.4311 -2.1115 -2.6960 0.5678 -1.5906 -3.6882 -0.7790 -0.3627 -0.9563 0.3025 0.8190 1.3323 0.3131 1.7773 3.7857
-1.7609 -0.9171 -3.1722 0.9916 -1.5010 -5.0138 0.6846 3.1872 4.5610 1.2164 0.6655 4.1285 -0.4066 -3.1787 -4.3531 -1.0978 1.4553 4.5985 0.1206 -1.6867 -1.8094 -0.1835 2.0558 2.3714 -0.5937 -1.0070 0.4707 0.8575 0.4758 -0.7943 -0.6824 -0.1170 1.4746 0.7635 1.4374 0.2859 -0.3173 -1.0879 -3.1292 0.0470 -2.0530 -4.2126 0.1847 -0.6874 -0.7139 0.0489 1.1345 1.3828 0.1275 1.8244 3.9251
-0.5930 -2.9028 -1.8169 -1.1078 -2.6996 -4.4676 1.2089 2.0761 5.0267 0.1144 -0.0707 4.0224 1.0672 -2.1103 -4.7560 -1.1314 2.0771 4.2035 -0.6081 -0.5231 -2.4236 0.6601 1.9942 2.4699 1.0437 0.5718 -0.8451 -1.3013 0.4089 -0.2465 1.3352 1.1569 0.3328 -0.9963 1.0679 1.0073 0.0812 -1.8631 -2.5775 0.0910 -2.2438 -4.0298 -0.3200 0.1492 -1.1288 0.2777 1.3825 1.3016 0.1784 1.5287 3.9277
-1.0926 -2.6112 -2.3175 0.7854 -2.6128 -4.5196 -0.5384 2.8860 4.8155 1.5907 2.3353 3.4047 -0.9070 -1.3142 -5.3125 0.4845 0.6273 4.8372 0.7058 -0.9412 -2.2091 -0.7436 1.2667 2.7731 0.8904 -0.8202 0.2875 -0.4151 0.8556 -0.8836 0.5420 -0.3021 1.4798 -0.7929 1.4166 0.4010 -0.5323 -1.4230 -2.9398 -0.2528 -1.7541 -4.3755 0.3741 -0.2330 -0.9400 -0.3073 0.8753 1.5315 0.2090 1.7490 3.9675
1.3495 -2.8077 -3.4099 -1.2247 -3.0420 -4.1076 0.5130 0.2344 4.3751 -0.9607 2.3067 4.9357 -1.5770 -0.8698 -3.5647 1.1749 2.5404 3.6945 1.0200 -0.6634 -2.4295 -0.7613 1.5138 2.4669 1.1103 -0.5255 0.0883 -0.3562 0.9515 -1.1566 0.6941 0.0007 1.2556 -0.7997 1.5213 0.1004 0.3742 -2.0125 -2.6776 -0.8783 -1.8734 -3.5110 0.5504 -0.0421 -1.1635 -0.2594 1.0983 1.2561 0.0311 1.6693 3.8478
1.0931 -0.2267 -3.5519 -0.1218 -2.0558 -5.0420 0.8683 2.6622 4.8327 -1.5105 2.0253 3.9864 -2.1353 -1.5782 -4.1058 0.1357 3.1957 2.5227 0.1111 -1.7755 -1.9353 0.5938 0.7736 3.0755 -0.8703 -0.3684 -0.0666 1.3646 -1.2954 0.1250 -0.7428 0.2676 1.1145 1.4991 -0.6160 1.3964 -0.1520 -0.7669 -3.0317 -0.9150 -1.4717 -4.1125 0.2401 -1.1476 -0.5963 0.5178 0.1908 1.8351 0.0241 2.1872 3.5539
-1.4373 -1.8181 -4.1482 1.1490 -1.7362 -4.8506 -0.0746 3.0211 4.6816 2.0475 1.9677 3.5995 1.7526 -2.0511 -2.6878 0.1064 0.5738 4.3102 -0.8972 -1.7891 -1.8196 -0.2028 2.0338 2.2776 0.3942 -0.8570 0.1290 -1.6242 0.2588 -0.6256 0.5564 0.0383 1.1223 -1.4539 1.2164 0.4484 -0.4880 -1.2770 -3.1864 0.8996 -1.7645 -3.5181 -0.7381 -0.7407 -0.7783 -0.4433 1.0753 1.3230 0.4539 1.8484 3.7230
1.1836 -2.3637 -2.4128 -0.2369 -1.7853 -4.9274 1.0938 1.9459 5.0745 -0.1124 -0.0832 3.9605 -1.4572 -3.4098 -3.9048 -1.2327 2.1218 4.2315 -0.2328 -0.3634 -2.5341 0.5612 2.0262 2.5162 -1.0755 0.3540 -0.2682 1.2602 0.6671 -0.8438 -0.8794 0.9078 0.9431 1.4783 1.2416 0.4702 -0.1803 -1.8797 -2.5503 -0.7080 -2.4435 -3.8403 0.0382 0.2219 -1.1924 0.4545 1.3305 1.3362 0.0455 1.5118 3.9420
-0.6192 -2.8415 -1.9083 0.2038 -2.5227 -4.6114 -1.4148 0.5561 3.5385 -0.5970 2.7323 4.7303 -1.8300 -1.5051 -4.6827 0.7762 0.6683 4.7117 0.6710 -0.8100 -2.3695 0.6314 1.9252 2.5692 1.0472 -0.7075 0.1050 0.2829 1.2786 -1.0598 1.0030 -0.0718 1.2886 0.2433 1.9715 0.2188 -0.6249 -1.5624 -2.6014 -0.8320 -1.8442 -4.0614 0.6427 -0.0173 -1.1100 0.5456 1.3044 1.3471 -0.1290 1.4460 3.8952
-0.5463 -3.2472 -2.8834 -1.7753 -1.7024 -4.6808 -0.2423 2.0210 5.1144 -1.6877 1.8878 2.9393 -0.3312 -0.0082 -4.2401 0.2387 3.4507 3.1452 0.8172 -1.4380 -2.1248 0.8169 1.0468 2.9309 0.5610 0.5894 -0.6670 0.9026 -1.5891 0.3507 0.5495 1.1850 0.5398 0.8784 -0.9498 1.6527 -0.5586 -1.8131 -2.6390 -0.8280 -1.0841 -3.9314 0.7415 -0.8510 -0.7624 0.6744 0.3754 1.7412 -0.2108 2.1269 3.5146
1.6594 -1.8582 -3.6758 -0.8444 -1.7640 -4.7048 -0.7240 3.1037 4.3018 0.4646 3.1254 1.9773 -1.1583 0.2147 -3.6309 1.4660 1.9873 3.9525 0.1431 -2.1260 -1.7820 -0.5196 0.8774 2.9449 -1.2520 -1.2550 0.1112 1.1259 -0.7699 0.0609 -1.4075 -0.5279 1.2335 0.9631 0.0040 1.2744 0.6129 -1.2220 -2.8987 -0.5344 -0.8286 -3.7766 0.0604 -1.3640 -0.5067 -0.2592 0.1414 1.8161 0.2041 2.2618 3.3030

>  <OB_ATOM_TYPES> (1ptvA1)
N.3 O.co2 O.3 O.3 O.co2 O.2 C.3 O.3 C.ar C.ar C.ar C.ar C.3 C.2 C.ar C.ar P.3

>  <ENSEMBLE_RMSD> (1ptvA1)
0.607 0.870 0.989 1.094 1.118 1.167 1.221 1.242 1.246 1.319 1.397 1.399 1.426 1.453 1.459 1.491 1.497 1.498 1.505 1.513 1.514 1.522 1.527 1.545 1.550 1.552 1.553 1.562 1.583 1.593 1.610 1.619 1.625 1.630 1.630 1.641 1.649 1.674 1.676 1.687 1.692 1.692 1.692 1.734 1.743 1.755 1.794 1.836 1.854 1.857

$$$$
