
 OpenBabel03071213D

 54 60  0  0  0  0  0  0  0  0999 V2000
  -11.8430   18.6910   28.7380 O   0  0  0  0  0
   -9.9190   19.7200   27.0510 O   0  0  0  0  0
  -11.0610   15.8000   36.0140 O   0  0  0  0  0
   -8.1760   17.4900   19.8740 O   0  0  0  0  0
   -8.4460   14.2020   27.8400 O   0  0  0  0  0
  -12.0010   15.9090   27.8960 C   0  0  0  0  0
   -7.6640   18.1960   27.9900 C   0  0  0  0  0
   -9.6230   14.8260   30.1330 C   0  0  0  0  0
   -7.9880   15.6710   25.7060 C   0  0  0  0  0
  -11.0360   13.8670   34.8750 N   0  0  0  0  0
   -6.4460   16.4610   20.8690 N   0  0  0  0  0
  -12.4170   13.6750   37.2720 S   0  0  0  0  0
   -5.7880   17.8570   18.5520 S   0  0  0  0  0
  -12.8090   12.2010   37.9730 C   0  0  0  0  0
   -4.4360   17.4240   17.6230 C   0  0  0  0  0
  -13.4550   12.3040   29.7740 C   0  0  0  0  0
   -3.8910   17.8180   25.9710 C   0  0  0  0  0
  -12.6060   12.2220   28.6510 C   0  0  0  0  0
  -13.8720   13.5680   30.2560 C   0  0  0  0  0
   -4.7990   18.8260   25.5740 C   0  0  0  0  0
   -4.2000   16.9470   27.0360 C   0  0  0  0  0
   -8.5300   17.3960   32.8200 C   0  0  0  0  0
  -10.7180   16.1950   23.0650 C   0  0  0  0  0
  -12.3190   11.2370   37.0760 C   0  0  0  0  0
   -3.8060   16.3680   18.3150 C   0  0  0  0  0
  -12.1580   13.3910   27.9990 C   0  0  0  0  0
  -13.4240   14.7360   29.6120 C   0  0  0  0  0
   -6.0210   18.9560   26.2550 C   0  0  0  0  0
   -5.4260   17.0650   27.7200 C   0  0  0  0  0
   -8.6570   16.7390   31.5700 C   0  0  0  0  0
  -10.0960   15.9180   24.3060 C   0  0  0  0  0
   -9.2250   16.8920   33.9420 C   0  0  0  0  0
   -9.9420   16.4990   21.9300 C   0  0  0  0  0
  -10.1490   15.0870   32.5620 C   0  0  0  0  0
   -7.9080   16.2330   23.2690 C   0  0  0  0  0
  -11.6980   11.7240   35.9440 N   0  0  0  0  0
   -4.4230   15.9820   19.4880 N   0  0  0  0  0
  -10.6460   18.0070   28.5720 C   0  0  0  0  0
  -10.1090   18.3210   27.2080 C   0  0  0  0  0
  -10.9230   16.5360   28.7990 C   0  0  0  0  0
   -8.7520   17.6730   27.0350 C   0  0  0  0  0
   -9.7780   15.6110   28.8990 N   0  0  0  0  0
   -8.6510   16.1960   26.9140 N   0  0  0  0  0
  -10.7590   15.1670   35.0100 C   0  0  0  0  0
   -7.7220   16.8850   20.8330 C   0  0  0  0  0
  -12.5630   14.6470   28.4930 C   0  0  0  0  0
   -6.3260   18.0760   27.3190 C   0  0  0  0  0
   -9.4680   15.5820   31.4380 C   0  0  0  0  0
   -8.6870   15.9400   24.4030 C   0  0  0  0  0
  -11.6710   13.0580   35.9090 C   0  0  0  0  0
   -5.5340   16.7010   19.7570 C   0  0  0  0  0
   -8.9560   15.3120   27.8810 C   0  0  0  0  0
  -10.0330   15.7350   33.8150 C   0  0  0  0  0
   -8.5350   16.5210   22.0330 C   0  0  0  0  0
  1 38  1  0  0  0
  2 39  1  0  0  0
  3 44  2  0  0  0
  4 45  2  0  0  0
  5 52  2  0  0  0
  6 40  1  0  0  0
  6 46  1  0  0  0
  7 41  1  0  0  0
  7 47  1  0  0  0
  8 42  1  0  0  0
  8 48  1  0  0  0
  9 43  1  0  0  0
  9 49  1  0  0  0
 10 44  1  0  0  0
 10 50  1  0  0  0
 11 45  1  0  0  0
 11 51  1  0  0  0
 12 14  1  0  0  0
 12 50  1  0  0  0
 13 15  1  0  0  0
 13 51  1  0  0  0
 14 24  2  0  0  0
 15 25  2  0  0  0
 16 18  2  0  0  0
 16 19  1  0  0  0
 17 20  2  0  0  0
 17 21  1  0  0  0
 18 26  1  0  0  0
 19 27  2  0  0  0
 20 28  1  0  0  0
 21 29  2  0  0  0
 22 30  1  0  0  0
 22 32  2  0  0  0
 23 31  2  0  0  0
 23 33  1  0  0  0
 24 36  1  0  0  0
 25 37  1  0  0  0
 26 46  2  0  0  0
 27 46  1  0  0  0
 28 47  2  0  0  0
 29 47  1  0  0  0
 30 48  2  0  0  0
 31 49  1  0  0  0
 32 53  1  0  0  0
 33 54  2  0  0  0
 34 48  1  0  0  0
 34 53  2  0  0  0
 35 49  2  0  0  0
 35 54  1  0  0  0
 36 50  2  0  0  0
 37 51  2  0  0  0
 38 39  1  0  0  0
 38 40  1  0  0  0
 39 41  1  0  0  0
 40 42  1  0  0  0
 41 43  1  0  0  0
 42 52  1  0  0  0
 43 52  1  0  0  0
 44 53  1  0  0  0
 45 54  1  0  0  0
M  END
>  <MOLID> (1qbrB1)
1qbrB1

>  <SMILES_CANONICAL> (1qbrB1)
O[C@@H]1[C@@H](O)[C@@H](Cc2ccccc2)N(C(=O)N([C@@H]1Cc1ccccc1)Cc1cccc(c1)C(=O)Nc1nccs1)Cc1cccc(c1)C(=O)Nc1nccs1	

>  <FINGERPRINT> (1qbrB1)
0000000000000011000000000001101000000001100000000101100000000000000000000001100000000001000000100000000000000001000011100000000000000000000010000000000010000001000000000000000000000100000000000001000000000000100000010000010000110010000000101011000000001100000000000010000000001001100000000010000000001000000011001100001000001001001100000000101000000000010100000000001110000100000000000000100000000000100110000000001000000000001000000000000000000000000000000000000000100100000000000000100000011100000000000000110000110000000000000100000000001000000000100000000001000000100000000000000011000000001010000101000000000000101000000000001000000001100000000000000000000001000000000001100000110111100001101001000001100111000000000000100011000000100000010101000100000000000111000000000000000001000000000000001111001100000000000000000110000000000010000000000000000000000000001001000000000000010001000000010000000100000000000000000100001010000000000000111000100000000000111010000000001110000100000000000010000100000000010000011100000000

>  <MACCS166> (1qbrB1)
000000000000000000100000000000000001100000001010010001000000000010000001001111001010100101110011101000000100011000001011110010111010101111110110110101111111111010111000

>  <OB_MW> (1qbrB1)
758.235

>  <OB_logP> (1qbrB1)
6.5082

>  <OB_PSA> (1qbrB1)
204.47

>  <OB_MR> (1qbrB1)
217.518

>  <OB_ATOMIC_CHARGES> (1qbrB1)
-0.2185578216 -0.2185578216 -0.2679482163 -0.2679482163 -0.2523282275 0.0488819962 0.0488819962 0.121712404 0.121712404 -0.1504866867 -0.1504866867 -0.0490986841 -0.0490986841 0.0588370253 0.0588370253 -2.00181e-05 -2.00181e-05 -0.0003218312 -0.0003218312 -0.0003218312 -0.0003218312 -0.0001220492 -0.0001220492 0.1079341422 0.1079341422 -0.0042107877 -0.0042107877 -0.0042107877 -0.0042107877 -0.0026076508 -0.0026076508 0.0045578487 0.0045578487 0.0019654397 0.0019654397 -0.2209396949 -0.2209396949 0.2021005708 0.2021005708 0.1143813542 0.1143813542 -0.258630581 -0.258630581 0.2706869582 0.2706869582 -0.0204383867 -0.0204383867 -0.002137775 -0.002137775 0.1861130283 0.1861130283 0.3077274387 0.0551824289 0.0551824289

>  <MCT_HBD> (1qbrB1)
4

>  <MCT_HBA> (1qbrB1)
11

>  <ENSEMBLE_TOTAL> (1qbrB1)
50

>  <ENSEMBLE_COORDS> (1qbrB1)
-2.6562 2.7639 0.8517 -0.7322 3.7929 -0.8353 -1.8742 -0.1271 8.1277 1.0108 1.5629 -8.0123 0.7408 -1.7251 -0.0463 -2.8142 -0.0181 0.0097 1.5228 2.2689 0.1037 -0.4362 -1.1011 2.2467 1.1988 -0.2561 -2.1803 -1.8492 -2.0601 6.9887 2.7408 0.5339 -7.0173 -3.2302 -2.2521 9.3857 3.3988 1.9299 -9.3343 -3.6222 -3.7261 10.0867 4.7508 1.4969 -10.2633 -4.2682 -3.6231 1.8877 5.2958 1.8909 -1.9153 -3.4192 -3.7051 0.7647 -4.6852 -2.3591 2.3697 4.3878 2.8989 -2.3123 4.9868 1.0199 -0.8503 0.6568 1.4689 4.9337 -1.5312 0.2679 -4.8213 -3.1322 -4.6901 9.1897 5.3808 0.4409 -9.5713 -2.9712 -2.5361 0.1127 -4.2372 -1.1911 1.7257 3.1658 3.0289 -1.6313 3.7608 1.1379 -0.1663 0.5298 0.8119 3.6837 -0.9092 -0.0091 -3.5803 -0.0382 0.9649 6.0557 -0.7552 0.5719 -5.9563 -0.9622 -0.8401 4.6757 1.2788 0.3059 -4.6173 -2.5112 -4.2031 8.0577 4.7638 0.0549 -8.3983 -1.4592 2.0799 0.6857 -0.9222 2.3939 -0.6783 -1.7362 0.6089 0.9127 0.4348 1.7459 -0.8513 -0.5912 -0.3161 1.0127 0.5358 0.2689 -0.9723 -1.5722 -0.7601 7.1237 1.4648 0.9579 -7.0533 -3.3762 -1.2801 0.6067 2.8608 2.1489 -0.5673 -0.2812 -0.3451 3.5517 0.4998 0.0129 -3.4833 -2.4842 -2.8691 8.0227 3.6528 0.7739 -8.1293 0.2308 -0.6151 -0.0053 -0.8462 -0.1921 5.9287 0.6518 0.5939 -5.8533
-2.8573 1.3483 0.5101 -0.4614 2.4012 -0.2928 -1.2265 0.9008 4.9890 1.3218 2.8055 -4.8344 0.4751 -3.3115 -0.2504 -2.7827 -1.1920 -0.9501 1.3635 0.4332 0.9407 -1.4878 -2.8931 1.6161 1.6714 -1.4164 -1.7728 0.0202 0.0835 6.7621 1.4610 1.8993 -6.9614 0.6023 0.8926 9.2300 2.3372 2.6349 -9.3624 -0.6436 1.8211 10.0192 3.9256 3.3507 -9.3829 -6.8471 -2.4947 -0.5578 4.8152 2.9119 0.3799 -6.5903 -1.1826 -0.7061 -5.7514 -3.4468 -0.5126 3.7973 3.3611 1.1361 4.7583 1.5807 -0.1968 0.3535 -3.6314 4.8723 0.3726 -1.8306 -5.2702 -1.6933 1.9508 9.1900 4.4031 3.4074 -8.1277 -5.2184 -0.7213 -0.8217 -4.4795 -3.0188 -0.6082 2.6265 2.5284 1.3461 3.6838 0.8004 0.0158 -0.1900 -3.7792 3.5332 0.7070 -2.0983 -3.9947 0.2330 -2.4623 5.5270 0.5826 -0.4993 -5.8127 -0.9346 -1.4811 3.6444 1.5652 0.1492 -3.6954 -1.6153 1.3642 7.9424 3.6143 2.9175 -7.1054 -1.6893 0.5419 0.5753 -0.7003 1.0117 -0.4660 -2.0845 -0.8992 0.3654 0.6145 0.2778 -0.3701 -1.0552 -1.8687 0.6854 0.5969 -1.0911 -0.8520 -0.6058 -0.0111 5.5295 1.3284 1.8338 -5.5850 -4.2003 -1.5986 -0.7530 2.5588 1.3060 0.7879 -0.7994 -2.7412 2.9307 1.2931 -1.0577 -3.1660 -0.4600 0.7820 7.8422 2.5077 2.4846 -7.6257 0.0270 -2.1621 -0.1516 -0.4287 -1.3386 4.8830 1.1858 0.4471 -5.0677
-1.5109 1.7323 0.2257 0.6203 2.7111 -1.1590 -1.4833 1.0091 7.0012 0.2424 -0.6300 -7.4024 2.3472 -2.5851 0.3641 -1.3267 -1.1010 -0.5139 2.7917 1.3390 0.2780 0.3969 -2.0290 2.1388 2.9463 -1.1885 -1.8927 -2.7697 -0.2980 5.5848 1.0351 1.0970 -6.0830 -5.1853 -1.3972 5.4527 0.7175 3.7250 -5.8113 -5.8820 -1.8418 6.9866 -0.8553 4.3293 -6.2572 -5.2756 -2.2630 0.6929 5.4979 4.2331 -1.3546 -5.0954 -1.0633 0.1118 -4.1373 -3.1353 0.9207 4.5224 4.6417 -0.5233 5.6582 2.8199 -1.6461 2.0300 -0.5846 5.2746 1.2134 -3.4083 -4.3775 -5.0182 -1.5410 7.9714 -1.6213 3.3081 -6.6773 -3.7641 -0.6464 -0.2926 -2.9024 -2.7436 0.5581 3.6111 3.6715 0.0574 4.8250 1.9193 -1.0954 1.8810 -1.2087 3.9716 1.8624 -2.9911 -3.2753 0.9458 -0.1522 5.9436 0.8523 -2.4547 -5.4109 -0.5031 -0.8108 4.1175 1.9057 -0.7105 -4.0986 -3.8091 -0.9691 7.6274 -1.0739 2.0408 -6.6799 -0.2615 1.0640 0.3323 0.5346 1.3117 -0.9278 -0.5157 -0.4063 0.5651 1.9310 0.7522 -0.8276 0.6402 -1.1749 0.9942 2.0149 -0.6926 -0.8973 -1.5766 0.2082 6.0759 0.7619 -0.2312 -6.3638 -2.7029 -1.4403 -0.0561 3.7373 2.3648 -0.2388 0.6641 -1.2949 3.4033 2.2033 -1.5858 -3.1208 -3.7799 -0.8402 6.3369 0.1449 2.1280 -6.2436 1.7088 -1.5423 0.1687 -0.3765 -0.2883 5.3509 1.1831 -1.1562 -5.2792
-1.9617 1.4184 1.0840 0.0358 2.3946 -0.5058 -0.4309 -0.4810 7.5281 -0.0216 1.2512 -7.5552 0.9641 -3.3194 -0.4109 -2.3446 -1.1990 -0.1268 2.1704 0.5136 0.2020 -0.2689 -2.7928 1.9373 1.6087 -1.5530 -2.3403 -2.0549 -0.2606 5.8884 1.9169 1.6214 -6.3523 -4.3381 1.0542 5.5380 3.6306 3.5767 -5.7819 -4.4505 2.5804 6.3712 2.9485 5.1805 -5.7847 -5.0637 -3.9544 1.7079 5.3082 2.8933 -1.4923 -4.0510 -4.4302 0.9615 -5.2745 -2.5213 1.8155 5.3551 1.5557 -1.6269 4.2176 3.5104 -0.7592 2.2371 -2.1642 4.7466 -1.0448 -1.9299 -4.9809 -3.3161 2.7959 7.0595 1.6446 5.1089 -6.1027 -3.1511 -3.5091 0.2920 -4.4351 -1.6667 1.2028 4.3080 0.7304 -1.0514 3.2518 2.7458 -0.2189 1.6842 -2.5771 3.4693 -0.3348 -2.1239 -3.8546 1.4580 -1.5411 5.6486 -0.6576 -0.8846 -5.9114 -0.4568 -1.6890 4.1730 1.1791 -0.3208 -4.4349 -2.3205 1.8415 6.9917 1.1020 3.8640 -6.3504 -0.8216 0.6098 0.8259 -0.2308 0.9983 -0.5111 -1.2455 -0.8367 0.8596 1.0570 0.2640 -0.8000 -0.1537 -1.7922 0.8941 0.9018 -1.1385 -1.1441 -0.8107 -0.6350 6.3706 0.7223 0.9748 -6.6181 -3.3071 -2.1807 0.4428 3.2806 1.3024 -0.3972 0.3948 -2.3227 3.1813 0.8037 -1.2687 -3.5577 -2.7365 0.8814 6.2250 2.0408 2.9796 -6.2072 0.5879 -2.1533 -0.2342 0.0560 -1.2859 5.3503 0.4178 -0.1156 -5.6558
-2.2110 1.6394 -0.2537 0.2038 2.3961 -1.2689 -2.2906 0.4879 5.4680 1.3473 0.6936 -7.6521 0.9115 -3.2304 -0.1207 -2.2644 -1.1052 -1.3066 1.9569 0.6093 0.2892 -1.1416 -2.4712 1.5075 2.1004 -1.7299 -2.0398 -0.6576 0.0602 7.0556 2.1495 1.7847 -5.7780 -0.2696 0.6836 9.6129 2.3998 4.1933 -4.6810 -1.7147 0.7764 10.5821 1.1112 5.3096 -5.0412 -6.3737 -2.0510 -0.5432 5.3992 2.9325 -0.7711 -5.4849 -3.0520 -0.6761 -5.9430 -0.6733 -0.6969 4.3992 3.5134 -0.0842 5.3229 1.5232 -1.1114 1.1679 -2.7128 4.5350 0.5875 -2.7524 -5.3177 -2.7822 0.4943 9.8157 0.1959 4.6979 -5.8123 -4.0893 -2.7538 -0.9472 -4.6544 -0.3976 -0.9644 3.2334 2.7362 0.2966 4.2505 0.7991 -0.7455 0.6083 -2.9266 3.2135 0.9942 -2.7858 -4.0357 0.5926 -1.8344 5.3751 0.8073 -1.5609 -6.1187 -1.0789 -1.2636 3.7122 1.9009 -0.5435 -4.2114 -2.5694 0.1971 8.4838 0.4175 3.3824 -6.1703 -1.0918 0.7854 -0.0622 -0.1027 1.0123 -1.1812 -1.5739 -0.6449 -0.0335 1.1731 0.2429 -0.9562 -0.6123 -1.6065 0.4698 1.0793 -1.1881 -1.1639 -1.2809 -0.1102 5.8290 1.6176 0.6997 -6.4547 -3.6832 -1.4759 -1.0592 3.1488 1.4365 -0.0411 -0.4559 -2.2113 2.8037 1.6566 -1.6296 -3.4560 -1.2943 0.2701 8.2538 1.5426 3.0076 -5.6440 0.4845 -2.0772 -0.2631 -0.5771 -1.0810 4.9485 1.4371 -0.4955 -5.5886
-3.1604 2.8088 0.2464 -0.6202 3.0767 -0.7013 0.5020 -0.0873 7.2088 3.9091 0.8222 -4.4372 -0.9543 -2.5151 0.7419 -3.6735 0.0637 -0.6359 0.6972 1.1235 1.1030 -2.8374 -1.3240 2.2756 0.6276 -1.3490 -1.0970 1.3245 -0.8346 5.1820 2.8481 0.7182 -6.4918 3.2532 -2.3538 4.1594 3.4457 0.8653 -9.0748 3.8128 -3.6386 5.1958 5.0193 0.2582 -9.5101 -7.8884 -0.1875 0.0886 4.5383 2.8184 0.2522 -7.1559 -1.3159 0.0883 -7.2526 1.0911 -0.1729 3.5683 3.6068 0.7496 4.2913 1.4018 0.0516 -3.2686 0.6297 5.5149 -0.5014 -1.0643 -4.6736 3.1201 -3.6150 6.3473 5.6372 -0.2052 -8.4101 -5.7269 -1.2539 -0.1631 -5.9314 1.1478 -0.4158 2.2675 3.0443 1.0644 3.0912 0.8775 0.3569 -3.5425 0.0275 4.2246 -0.5128 -1.3282 -3.3546 -2.0492 0.5082 6.0671 0.6641 -0.4459 -5.2807 -1.2747 -0.8301 4.2011 1.7155 -0.4100 -3.1016 2.1514 -2.6434 6.5055 4.9694 -0.1251 -7.2035 -2.2130 1.7914 0.5384 -1.1551 1.7715 -0.5399 -2.9330 0.4685 0.6253 -0.0328 0.8255 -0.1935 -2.1637 -0.6156 1.2051 -0.3499 -0.5819 -0.3491 0.3268 -0.3901 6.0312 2.9461 0.4996 -5.1284 -5.1333 -0.0673 -0.3857 2.0275 1.7378 0.8503 -2.5790 -0.6547 3.5794 0.6321 -0.9694 -2.5346 2.1276 -1.9197 5.4282 3.8140 0.4239 -7.4207 -1.1492 -1.3093 0.5390 -1.0055 -0.2424 5.3829 1.7368 -0.1306 -4.5292
-2.3918 3.0155 -0.5092 0.2696 3.0192 -1.1008 0.6493 0.5313 6.5991 1.7848 -1.1642 -7.3360 -0.8030 -2.4501 0.4598 -3.0899 0.2872 -1.2787 1.1939 1.0538 0.8492 -2.6528 -0.9893 1.7806 1.0889 -1.5318 -1.2335 0.7472 -1.5735 5.6234 2.9974 -0.0112 -5.7415 2.1525 -3.8067 5.9498 4.3867 2.2388 -5.4412 2.6254 -4.1549 7.5902 3.8862 3.5572 -6.4652 -7.3500 0.5153 -0.8646 5.3858 1.8801 0.4965 -6.7295 -0.6529 -0.6202 -6.5854 1.6585 -1.3305 4.9796 0.6102 0.6744 4.4094 2.9538 0.4487 -3.1576 1.1219 4.9048 -0.6223 -2.8571 -4.3110 2.1945 -3.1687 8.3954 2.8750 3.1506 -7.2516 -5.2907 -0.7591 -0.7846 -5.2538 1.5580 -1.4924 3.5650 0.3125 0.8077 3.0987 2.6788 0.5753 -3.3593 0.5214 3.6009 -0.3351 -2.6125 -3.0197 -2.0569 0.8266 5.6170 0.1877 -2.2616 -5.3580 -1.2248 -0.6050 3.8440 1.5488 -1.2206 -3.6434 1.4900 -2.1241 7.8290 2.4291 1.8509 -7.1198 -1.5811 1.9411 -0.0540 -0.4091 1.7739 -0.9945 -2.4295 0.6969 0.0269 0.5707 0.7370 -0.4998 -1.8238 -0.4109 0.7417 0.1256 -0.6400 -0.6166 0.1923 -0.3235 5.8451 2.0096 -0.8852 -6.1614 -4.5741 0.3131 -1.1694 2.6562 1.3019 0.7331 -2.4250 -0.2930 3.0774 0.7708 -1.7328 -2.6731 1.3980 -2.3457 6.5539 3.1353 1.2751 -6.1959 -0.8352 -1.2388 0.2048 -1.0604 -0.0868 5.0777 1.2373 -1.4804 -5.0399
-1.3178 1.3151 0.7887 0.4777 2.3663 -0.9730 -3.0954 -2.0784 5.0698 -0.3059 0.6608 -7.3746 2.2592 -3.0970 -0.2350 -1.3462 -1.4736 -0.1761 2.8809 0.9253 -0.1917 0.9215 -2.5162 2.0429 2.5807 -1.5169 -2.3995 -2.4802 -0.5685 6.7129 1.1993 1.8052 -6.0461 -3.6274 1.1246 8.4143 1.7120 4.2328 -5.0801 -5.1264 1.8246 7.8673 0.3237 5.2765 -4.9327 -4.8368 -3.0049 1.7886 5.6874 3.2735 -2.4292 -4.8451 -1.7396 1.3322 -3.6472 -3.8227 1.6337 5.9666 1.9827 -2.1736 4.4557 3.8605 -1.9336 1.4655 -0.6105 5.3185 0.3327 -2.8462 -5.1012 -5.4209 1.3455 6.6464 -0.7690 4.6272 -5.3695 -3.6669 -1.1959 0.6794 -2.5540 -3.3175 1.0343 5.0305 1.1734 -1.4136 3.5928 3.1136 -1.2220 1.7325 -1.2142 4.0232 1.0872 -2.7830 -3.9886 0.2259 -0.6461 5.8414 0.1485 -1.6624 -5.9231 -0.6041 -1.8344 3.9008 1.5816 -0.4457 -4.3964 -4.5462 0.4454 6.0699 -0.6192 3.3327 -5.8247 -0.0933 0.6337 0.5603 0.4084 0.9538 -0.8282 -0.3221 -0.8428 0.7487 1.7797 0.3734 -1.0782 0.8910 -1.6266 0.8926 1.8325 -1.0696 -1.2377 -2.2529 -1.3579 5.5974 0.4782 0.6873 -6.4305 -2.5546 -1.9439 0.5556 3.8761 1.7078 -0.9754 0.7312 -1.7838 3.3271 1.7133 -1.5272 -3.6082 -3.5660 0.2506 6.8976 0.6328 3.0095 -5.7152 1.6941 -1.9957 -0.1957 -0.8546 -1.2743 5.0979 0.7530 -0.5066 -5.5884
-2.6902 3.0525 -0.1271 -0.1766 2.8704 -1.1851 0.9915 0.7114 6.4720 1.9542 -0.2830 -7.2120 -1.2700 -2.5047 0.6316 -3.6942 0.3997 -0.7817 0.9351 0.7869 0.5906 -2.9159 -0.9825 2.1272 0.2080 -1.7169 -1.4912 1.4287 -0.7429 4.7273 3.2754 -0.2394 -5.3154 3.2207 -2.5645 3.9968 5.5165 0.8716 -4.4107 3.8184 -3.5755 5.2842 5.8122 2.4980 -4.9612 -7.6076 -0.5901 0.6525 4.9357 1.6638 -0.6658 -6.7831 -1.5774 0.2592 -7.1911 0.7957 0.5293 4.1369 2.6709 -0.2699 4.4537 0.2947 -0.6227 -3.0912 0.8119 5.4758 -1.4123 -1.2855 -4.8646 3.2296 -3.2193 6.4388 4.8140 2.8791 -5.7763 -5.4671 -1.2573 -0.2635 -5.9740 1.0937 0.0402 2.7881 2.3884 0.1858 3.2049 0.0320 -0.1984 -3.4689 0.2628 4.1873 -1.2550 -1.5419 -3.5532 -1.8184 0.7209 5.8995 -0.2676 -0.9030 -5.6721 -1.1674 -0.4202 3.8649 1.1216 -1.0823 -3.6955 2.3133 -2.1861 6.4131 3.7905 1.9839 -6.0177 -1.8904 1.9201 0.1872 -0.9129 1.6811 -0.9406 -2.8017 0.7365 0.4006 0.0525 0.5666 -0.6241 -2.1808 -0.4255 1.0083 -0.5197 -0.7653 -0.6730 0.6078 0.0521 5.5095 2.0830 -0.4132 -5.9979 -5.0664 0.0249 -0.3447 2.3282 1.1239 0.1934 -2.5420 -0.3153 3.4019 0.0572 -1.4082 -2.9396 2.2233 -1.7603 5.1908 4.0422 0.8974 -5.3546 -1.3193 -1.3025 0.3403 -0.8132 0.0789 5.0641 0.9538 -0.8072 -5.1137
-2.9323 0.9102 1.1572 -0.7450 2.1435 0.0851 -0.1049 -0.4035 7.3063 2.5863 2.5627 -4.5988 0.7507 -3.4397 0.1438 -2.8173 -1.6258 -0.3166 1.3591 0.3504 1.1246 -1.1938 -3.2543 2.0476 1.4736 -1.5245 -1.6257 -1.1045 0.5000 5.4189 1.6027 2.0832 -6.6406 -1.9259 2.8577 4.5124 1.9053 2.7404 -9.1996 -1.0651 4.2362 5.1398 3.5514 2.9973 -9.7098 -6.7310 -3.1576 0.5251 4.3873 3.2542 0.2481 -6.5738 -1.8372 0.3223 -5.5786 -4.0399 0.4818 3.4246 3.5553 1.1381 4.4200 1.9403 -0.3690 0.9106 -3.8831 5.1596 -0.5464 -1.0397 -4.7672 -0.0973 3.8148 5.9719 4.3742 2.8190 -8.6620 -5.2532 -1.2976 0.0514 -4.3536 -3.5392 0.2403 2.4010 2.5766 1.4589 3.4837 1.0269 -0.0572 0.3011 -4.0498 3.8530 -0.1182 -1.5468 -3.5965 0.6952 -2.7588 5.8657 0.1252 0.1081 -5.3527 -0.7511 -1.8889 4.1299 1.6669 0.0876 -3.4866 0.0398 2.4560 6.1796 3.8170 2.4803 -7.4445 -1.7054 0.1968 1.0906 -0.8820 0.7369 -0.0549 -2.0093 -1.2711 0.9177 0.4910 0.1157 -0.0982 -0.8912 -2.1670 1.1368 0.5248 -1.2598 -0.5597 -0.4303 -0.4846 6.1253 1.8757 1.8501 -5.3032 -4.1805 -2.1102 0.0315 2.4121 1.3691 0.8654 -0.4807 -3.0806 3.3430 1.0114 -0.9377 -2.9135 -0.8663 1.8499 5.4765 2.5308 2.4066 -7.5980 0.1637 -2.3537 0.2360 -0.1582 -1.7107 5.3250 1.2107 0.6361 -4.7547
-2.7675 1.5544 1.1677 -1.2916 3.7951 0.6754 0.5781 -2.0233 6.9493 -0.4936 -0.2953 -6.9788 2.1789 -0.5359 -0.9598 -1.7610 -0.1812 -0.9564 1.3929 2.7348 1.2757 0.5636 -1.6352 0.9308 2.0949 2.0171 -1.8796 -1.2064 -1.2652 5.6817 0.3947 -1.5264 -5.2334 -3.8673 -1.2716 5.7369 1.2352 -4.0077 -4.7594 -4.5857 -2.5362 6.6974 1.9190 -4.8320 -6.1348 -4.6371 -3.3611 -0.9261 3.0037 6.7006 1.4822 -5.0329 -2.1194 -0.5932 -3.2492 -3.6101 -1.2732 1.9849 6.3631 2.2930 3.5785 5.7110 0.5886 3.1837 -1.4147 3.7034 0.8231 3.2794 -5.1668 -3.6142 -3.3092 7.2122 1.8716 -4.0227 -7.2067 -4.0723 -1.0299 -0.5847 -2.3568 -2.6035 -1.2539 1.4421 5.0168 2.2538 3.0867 4.4597 0.5634 2.5830 -1.4643 2.3831 1.3285 3.2457 -3.9206 2.4035 -1.4418 4.7982 0.4137 2.0477 -5.8177 0.4049 -1.6017 3.4344 1.1151 0.8321 -3.8458 -2.3031 -2.9903 6.9191 1.3325 -2.7616 -7.0480 -1.3639 1.4263 0.9846 -0.8786 2.5589 0.1093 -1.0775 0.0742 0.3762 0.6235 2.5678 -0.0226 0.3203 -0.3161 0.3796 1.1711 1.5313 -0.8725 0.1080 -1.6564 5.8757 0.0988 -0.3514 -5.9047 -2.7789 -1.2642 -0.8750 1.9530 4.1073 1.4038 1.2444 -1.5197 2.2508 1.4610 1.9763 -3.2260 -2.3039 -1.9370 6.1608 0.9669 -2.6324 -5.8096 1.2738 0.1828 -0.5144 0.9568 -1.5329 4.6606 0.5508 0.8679 -5.1839
-1.8788 2.2463 -0.8903 0.4572 3.4393 -1.6597 -0.5290 -0.8267 7.6711 0.4141 -0.9685 -7.0105 2.1198 -1.7632 0.2532 -1.2189 -0.5441 -1.4744 2.2484 2.3023 0.3581 -0.1656 -1.2113 1.6342 3.2898 -0.1678 -1.6215 -1.9261 -2.0312 6.2694 0.0527 0.7456 -5.4990 -4.2313 -3.3512 6.3951 -1.8670 2.3552 -4.6007 -5.3082 -2.8466 7.6685 -3.4828 1.7130 -4.7110 -5.0618 -2.4271 -1.2218 6.1151 4.1014 -0.0599 -4.9759 -1.1793 -1.7166 -3.8654 -3.1057 -0.7561 6.0318 2.7832 0.1942 4.9055 4.8983 -0.1634 1.4152 0.9342 4.4083 3.6000 -2.3994 -4.6123 -4.7369 -1.8484 8.3639 -3.4329 0.4710 -5.2222 -3.6863 -0.5158 -1.7873 -2.6706 -2.4908 -0.8225 4.7320 2.1600 0.3622 3.6997 4.3174 -0.0267 1.1330 0.3907 3.0958 3.8043 -1.8509 -3.4006 0.7560 0.4660 5.4811 2.5537 -1.8822 -5.4785 -0.4876 -1.0930 4.1044 2.0591 -0.2203 -3.7948 -3.4819 -1.4191 7.9784 -2.1969 -0.0508 -5.5495 -0.6463 1.7110 -0.4286 0.4421 2.0374 -1.4259 -0.8095 0.2233 -0.2291 1.8029 1.6251 -0.9243 0.2678 -0.4188 0.5002 2.0616 0.1991 -0.9420 -0.9007 -1.1407 6.5435 0.6975 -0.3886 -5.9668 -2.5774 -1.1375 -1.3463 3.6087 2.8883 0.2237 0.1971 -0.5651 2.9328 2.9925 -0.7258 -2.9690 -3.1099 -2.1290 6.9578 -1.2977 0.8441 -5.2777 1.5150 -0.7275 -0.0529 -0.2334 -0.5915 5.3289 1.8066 -0.8343 -5.0832
-1.9155 1.8788 0.1391 0.6108 2.1848 -0.8631 0.8538 0.1944 4.8208 1.4901 1.2277 -7.4281 -0.1020 -3.5527 -0.5866 -2.6752 -0.6213 -1.1819 1.9002 -0.1545 0.3589 -1.7100 -2.5982 1.3483 1.4645 -2.1285 -2.2667 -0.6295 0.4292 6.5863 2.5137 1.7628 -5.4262 -0.5957 0.9772 9.1910 3.3453 3.8610 -4.0195 0.9147 0.6533 9.9977 2.3753 5.2984 -4.1919 -6.8307 -1.3317 -0.4063 5.8830 1.2190 -0.4336 -6.3958 -0.0640 -0.5225 -5.8924 -2.4333 -0.5237 5.5648 -0.0569 -0.7172 4.8904 2.1004 0.1544 -3.6653 -1.3544 4.3615 -0.1483 -2.2485 -5.6557 1.8006 0.1771 9.1063 1.3572 5.0495 -5.0333 -4.9888 0.2016 -0.7680 -4.5893 -2.1881 -0.7489 4.2252 -0.5483 -0.4470 3.6495 1.6460 0.4047 -3.3294 -1.9741 3.0943 0.1847 -2.5663 -4.3912 -2.7144 -0.7287 5.0766 0.3916 -1.0478 -6.2697 -1.0294 -1.2904 3.4239 1.6316 -0.6277 -4.2320 1.3931 0.0310 7.7948 1.2572 3.7857 -5.5808 -1.0201 0.7765 0.1714 -0.0190 0.9140 -0.9529 -1.8214 -0.4978 0.0666 1.0441 -0.1548 -0.8941 -1.0834 -1.7096 0.3849 0.6078 -1.4806 -1.2900 -0.2484 -0.0026 5.3243 1.7401 0.9680 -6.2550 -4.1144 -0.8177 -0.8580 3.2944 0.2766 0.0673 -2.0691 -1.9221 2.6250 1.0904 -1.7096 -3.6439 0.1562 0.4136 7.7124 2.2410 3.0724 -5.1261 -0.1905 -2.3200 -0.5061 -1.3409 -0.7033 4.5958 1.2480 -0.2655 -5.5864
-2.9436 1.8735 0.9281 -0.7367 3.4657 0.6852 -2.2412 -1.0984 6.8102 0.8287 1.5459 -7.3643 1.2796 -1.8311 -0.4632 -2.2731 -0.1083 -1.1527 1.2912 1.5594 1.6404 -0.9493 -2.3093 0.9712 2.1477 0.5599 -1.4126 -0.2291 -0.7045 5.7363 0.9503 -0.5163 -6.3268 2.2801 -0.0844 6.3515 1.3749 -3.0711 -6.9284 2.8739 -0.7766 7.8360 2.5390 -3.3527 -8.1939 -6.0579 -2.0855 -1.5095 4.5240 4.3216 2.1706 -6.0308 -0.7542 -1.3193 -4.8151 -2.8309 -1.6005 4.7673 3.1394 1.5768 3.1846 4.6397 2.6323 -3.8243 -2.9325 3.3845 1.6785 3.4786 -3.7209 1.9090 -1.5284 8.3933 3.0174 -2.1739 -8.6276 -4.7588 -0.0651 -1.1968 -3.6363 -2.1927 -1.4906 3.6890 2.1844 1.3941 2.1840 3.7581 2.4578 -3.0299 -2.8769 2.1729 1.9186 2.7491 -2.6175 -3.3334 -2.4341 4.5323 1.3618 2.8142 -4.9708 -1.2784 -1.7734 3.4295 1.5403 0.6814 -3.8275 0.6939 -1.6191 7.7422 2.5398 -1.0190 -8.0391 -1.6594 1.2681 0.9123 -0.6998 2.1511 0.1501 -1.7736 -0.0967 0.2795 0.7114 1.6310 0.2408 -0.6338 -0.9723 0.4947 0.9817 0.4489 -0.5541 -1.5215 -1.1952 5.8194 1.0148 0.8663 -6.3583 -3.6068 -0.7579 -1.2566 2.4415 2.4896 1.7958 -1.8109 -2.3064 2.1856 1.8116 1.2986 -2.6620 0.7630 -0.9023 6.6631 1.6715 -1.3577 -7.1362 0.5857 -0.8433 -0.1883 -2.0106 -1.8247 4.5598 1.2994 1.4703 -5.0287
-3.1211 0.5123 1.3525 -1.5141 2.6920 1.0517 -0.0022 -1.7547 6.9508 -0.0621 1.7528 -7.1884 1.8346 -1.7109 -0.6512 -2.1224 -1.0886 -0.8932 1.0448 1.4012 1.7567 -0.0471 -2.8760 0.9611 1.9256 0.8982 -1.4073 -1.3052 -0.6997 5.3527 0.7499 -0.2241 -6.3070 -2.7565 1.4998 4.9948 1.8712 -2.4972 -7.1103 -2.2035 2.9048 5.8641 2.9773 -2.3475 -8.4482 -5.0699 -4.1972 -0.9750 3.2972 4.9977 2.3474 -3.8325 -4.4552 -1.4348 -5.4010 -2.8706 -0.4867 3.8511 3.9871 1.6538 1.9589 4.8555 2.8929 2.0390 -3.9115 3.9743 0.4410 3.6621 -3.4635 -1.0970 2.5892 6.5590 3.0555 -1.0573 -8.8175 -2.8236 -3.4109 -1.4292 -4.4699 -1.9003 -0.4897 3.1108 2.7549 1.4515 1.2708 3.7157 2.7029 1.5479 -3.7897 2.6143 0.9712 2.9823 -2.4319 1.4616 -3.2071 4.9635 0.2470 3.0010 -4.7405 -0.1402 -2.2536 3.4168 1.1422 0.9661 -3.7701 -0.6197 1.2953 6.4762 2.2984 -0.1326 -8.1246 -1.7236 0.3139 1.2010 -1.1369 1.4722 0.4308 -1.4919 -0.9919 0.4835 0.3669 1.3885 0.3999 -0.1340 -1.4952 0.5255 0.9072 0.3919 -0.5053 -0.3161 -1.5729 5.7774 0.3950 1.1128 -6.2452 -3.1214 -2.1888 -0.9514 1.8609 2.6314 1.9350 0.5174 -2.9705 2.3362 1.3003 1.5726 -2.5787 -1.4056 0.6272 5.6895 1.6325 -0.7649 -7.2077 0.9223 -0.9833 -0.2386 0.3330 -2.3334 4.6745 0.5862 1.7070 -4.8944
-2.0512 3.0789 -0.9632 0.6545 2.8587 -1.2463 0.3853 -2.7152 4.8233 1.5758 -1.0367 -7.1669 -1.0171 -2.4396 0.3713 -2.8105 0.3535 -1.7103 1.1582 0.9354 0.9467 -2.8947 -0.7857 1.4248 1.1692 -1.7015 -1.0587 0.0236 -1.5073 6.7684 2.7186 0.2021 -5.5840 1.1844 -1.2331 9.1476 3.7264 2.6302 -5.1713 2.9172 -1.4175 9.1560 2.8918 3.9263 -5.9839 -7.0527 0.5805 -2.2828 5.3739 1.6826 1.1464 -6.2551 1.4501 -2.9287 -6.4743 -0.4033 -1.3854 4.9283 0.4197 1.2745 4.4292 2.7694 0.9621 -2.7921 0.8916 4.8475 0.0054 -3.5099 -4.1285 3.3428 -1.6643 7.9051 1.8459 3.4243 -6.6626 -4.8167 1.4044 -2.7284 -5.1427 -0.4490 -1.2040 3.5037 0.1422 1.2166 3.1096 2.5140 0.9137 -3.1313 0.6081 3.4650 0.1846 -3.1691 -2.8398 -1.8786 0.1400 5.4876 0.5953 -2.7013 -5.1802 -1.5516 -1.2282 3.5152 1.5230 -1.2486 -3.4760 2.4022 -1.7243 6.8945 1.6277 2.0613 -6.6110 -1.3853 1.9775 -0.3603 -0.1237 1.6757 -1.1370 -2.3282 0.7982 -0.3392 0.7079 0.6101 -0.4662 -1.8939 -0.3146 0.4871 0.1908 -0.7370 -0.5968 -0.1868 -1.8151 5.4319 1.8609 -0.8039 -5.9955 -4.2803 0.5073 -1.8807 2.6289 1.1453 1.0178 -2.5211 -0.3989 2.8140 0.9585 -1.9860 -2.5029 1.2335 -1.5196 7.4197 2.5503 1.5341 -5.8661 -0.9168 -1.2372 0.0945 -1.2276 -0.9613 4.7947 1.3248 -1.6130 -4.8693
-2.2456 3.0845 -0.5879 0.1615 4.2636 -1.0854 -0.7607 -1.1041 7.5374 1.0828 -0.3435 -7.1658 1.5668 -1.1503 0.4050 -1.5793 0.3752 -1.5566 1.8322 2.8113 0.8635 -0.9057 -0.7826 1.4865 2.8461 0.5131 -1.3141 -0.5424 -2.8756 6.0560 -0.0920 -1.0554 -5.3065 -0.3438 -5.5240 6.1736 -1.6937 -3.0231 -4.5058 -1.1439 -6.2708 7.5292 -1.4073 -4.5667 -5.2617 -5.5111 -1.2867 -1.9130 4.8552 5.8204 0.4329 -5.3120 -0.0003 -2.2517 -4.4072 -2.0835 -1.4081 3.6258 6.1772 0.8460 5.1614 4.4218 0.1908 -1.8893 1.4666 4.4242 3.6502 1.9083 -4.6893 -1.7256 -5.3201 8.2802 -0.3785 -4.4568 -6.1196 -3.9891 0.5854 -2.1282 -3.1850 -1.5371 -1.2795 2.5983 5.1666 1.0217 4.2133 3.4838 0.3649 -1.6316 1.0177 3.0717 3.6698 1.6674 -3.3665 -1.6475 0.6439 5.4585 2.7041 1.2084 -5.5382 -0.7810 -1.0623 3.9702 1.9085 0.0128 -3.5835 -1.6032 -4.0041 7.8782 0.2327 -3.2252 -6.2508 -1.0623 2.4379 -0.1421 0.0942 2.8471 -1.0227 -1.2839 0.9464 -0.1828 1.4061 2.3124 -0.5048 -0.3139 0.1660 0.5614 1.6000 0.8839 -0.6716 -0.7891 -1.5547 6.3948 0.9403 -0.3923 -5.9471 -2.9685 -0.1468 -1.6455 2.8693 3.8742 0.7622 -1.0717 -0.1860 2.8438 2.7488 0.7023 -2.7883 -0.8994 -3.9807 6.7885 -0.3694 -2.3905 -5.4602 0.9876 -0.0940 0.1204 -1.0856 -0.6793 5.2261 1.8642 0.2983 -5.0099
-3.4531 2.6206 0.5330 -0.9687 3.0164 -0.5209 1.0069 -0.2009 6.6737 1.8918 1.6375 -6.4732 -1.1851 -2.6930 0.3944 -4.0134 -0.0543 -0.5018 0.5027 0.9457 0.9506 -2.8991 -1.6553 2.2094 0.2686 -1.3440 -1.4246 1.5774 -0.5487 4.4573 3.4023 0.5508 -5.0845 3.7521 -1.1767 3.0567 6.0595 0.4344 -4.9794 4.9749 -2.0557 3.9285 6.8547 0.3092 -6.5254 -8.1289 -0.4133 0.6390 4.4474 2.3219 -0.0017 -7.4093 -1.5297 0.4255 -7.5251 0.8900 0.4287 4.1599 1.0160 -0.1456 3.4243 3.2439 0.4585 -3.0775 -0.2770 5.7499 -1.1855 -0.7804 -4.8479 4.5537 -2.2654 5.1870 5.9305 0.3008 -7.5012 -6.0178 -1.4312 0.0201 -6.2424 0.9814 0.0357 2.8248 0.5329 0.1544 2.1928 2.7924 0.7560 -3.4605 -0.7635 4.4392 -1.0738 -1.1455 -3.5580 -1.7772 -0.1677 6.0714 -0.0704 -0.1370 -5.5197 -1.1102 -1.0493 3.9157 1.1790 -0.2521 -3.4441 3.3122 -1.7801 5.5499 4.6003 0.3810 -7.1405 -2.4737 1.6019 0.6810 -1.4903 1.6959 -0.4623 -3.1675 0.2619 0.7196 -0.3420 0.7348 -0.2906 -2.3371 -0.8495 1.1433 -0.6564 -0.6586 -0.5421 0.6852 -0.4352 5.5108 2.1374 0.8469 -5.5669 -5.4469 -0.2233 -0.1406 1.8778 1.3832 0.5905 -2.5186 -1.1122 3.5438 0.1487 -0.8575 -2.8248 2.7940 -1.1843 4.5199 4.5386 0.4611 -5.8471 -1.3874 -1.4731 0.3288 -0.7477 -0.5586 5.1172 1.0680 0.1129 -4.8467
-2.6468 0.9328 0.7535 -0.9767 3.0894 0.5718 0.1006 -0.7131 6.8480 -0.5134 1.6104 -6.6722 2.5311 -1.4117 -0.3486 -1.4023 -0.8542 -1.1714 1.4748 1.8783 1.6337 0.4445 -2.4787 1.0398 2.6596 1.0902 -1.4005 -1.3438 -0.1586 5.1228 -0.1480 -0.3713 -5.5337 -3.7868 0.8149 4.7335 -0.3922 -2.9812 -6.0004 -4.8644 0.6761 6.0959 -0.2796 -3.4456 -7.6768 -3.3759 -4.6492 -1.4418 3.5159 5.6025 2.1992 -2.1210 -4.5253 -1.9102 -4.0725 -3.4875 -0.9184 4.1572 4.5949 1.5805 2.1584 5.4134 2.6790 2.1466 -3.3986 4.3220 2.0794 3.6463 -4.0671 -4.2274 0.0590 7.1059 -0.1139 -2.3468 -8.4327 -1.4517 -3.2381 -1.8579 -3.4553 -2.2927 -0.8757 3.4903 3.3195 1.3902 1.5389 4.2330 2.5005 1.8231 -3.3422 2.9076 2.5036 3.0443 -2.9423 1.4880 -2.6171 5.1966 1.2382 2.9222 -5.0009 0.1694 -1.6516 3.4108 1.3514 0.9925 -3.5370 -2.9176 -0.3309 6.9096 -0.0549 -1.1227 -7.7975 -1.2424 0.7263 0.8268 -0.5446 1.8325 0.0698 -0.9264 -0.6338 0.2544 0.9526 1.7477 0.2155 0.4136 -1.1293 0.5078 1.5794 0.6738 -0.5284 -0.2693 -0.8311 5.6834 0.0125 0.9862 -5.7541 -2.0790 -2.1706 -1.3308 2.2238 3.1506 1.8122 0.8845 -2.4866 2.4620 2.1150 1.6721 -2.6594 -2.5725 0.0125 5.7070 -0.1796 -1.3235 -6.5215 1.5660 -0.6664 -0.1342 0.4527 -1.7101 4.7241 0.8868 1.6469 -4.7505
-2.7530 2.5764 0.0275 -0.2361 2.5668 -1.0339 0.4222 0.4593 6.7419 1.9994 0.1414 -7.1470 -1.0878 -2.9518 0.4479 -3.6437 -0.0824 -0.8050 0.9511 0.4469 0.6274 -2.8233 -1.6128 2.0072 0.3775 -1.9656 -1.5991 1.2812 -0.3485 4.7490 3.2463 0.2794 -5.2039 3.5844 -1.2907 3.8069 5.2310 1.6730 -4.1138 4.6531 -1.9717 5.0032 5.3293 3.3395 -4.6119 -7.7666 -0.0139 0.3601 5.0608 1.1684 -0.3409 -7.1164 -1.1910 0.3235 -7.0836 1.2049 -0.0346 4.5976 -0.0941 -0.3698 4.1695 2.2614 0.0041 -3.5027 0.1239 5.3199 -1.2123 -1.5477 -4.9831 4.0722 -1.8952 6.2127 4.3404 3.6010 -5.4837 -5.7257 -1.2392 -0.0912 -5.7978 1.1601 -0.4263 3.2094 -0.3641 -0.0423 2.8828 2.0120 0.3052 -3.6977 -0.4878 4.0199 -1.0416 -1.8736 -3.6891 -2.2615 0.2634 5.8163 -0.1307 -0.9218 -5.7229 -1.2991 -0.7991 3.8635 1.2305 -1.0259 -3.7214 2.8153 -1.3291 6.2980 3.4723 2.5782 -5.8127 -1.9105 1.4573 0.2664 -0.9216 1.3336 -0.8695 -2.7708 0.2244 0.3981 0.0929 0.2505 -0.6075 -2.1055 -0.9471 0.9374 -0.4109 -1.1026 -0.7392 0.2572 -0.0112 5.6188 2.1160 -0.0397 -5.9381 -5.0827 -0.1061 -0.4279 2.3790 0.6492 0.2656 -2.6390 -0.9126 3.3064 0.2189 -1.5783 -3.0272 2.4530 -0.9701 5.1046 3.8341 1.5181 -5.1578 -1.1937 -1.7377 0.2293 -1.1097 -0.2076 5.0587 1.0464 -0.6703 -5.1195
-1.5594 2.2546 -0.4388 1.0404 3.0775 -0.5185 0.4339 -0.4811 5.4795 1.1397 0.0682 -7.2410 1.4245 -2.6964 -0.3718 -1.3236 -0.2647 -1.9114 2.2591 0.9596 1.1251 -0.9440 -2.1663 0.8108 3.1415 -0.8815 -1.4812 -1.5731 -0.2977 6.6270 0.5523 1.2829 -5.3586 -2.4548 -0.1497 9.1331 -1.3471 2.9417 -4.5146 -1.4273 -0.8936 10.3277 -2.9080 2.7188 -5.2564 -5.4844 -1.2206 -2.3038 5.9365 3.1073 1.6108 -4.5736 -2.2070 -2.3877 -5.0499 0.1548 -2.1386 4.7939 3.6448 2.0745 5.9220 1.7940 0.9922 -3.7295 -1.0860 3.1637 3.3592 -2.5898 -4.8040 -0.3477 -1.4158 9.7211 -2.8451 1.6956 -6.1256 -3.1581 -1.9004 -2.2792 -3.7387 0.4407 -2.0546 3.5416 2.9242 1.9298 4.7657 1.1172 0.8774 -3.0212 -1.5385 1.9829 3.5259 -2.3029 -3.5003 -3.0465 -0.7799 4.2801 2.5656 -1.7108 -5.6451 -0.9401 -1.3298 3.2086 2.2522 -0.2557 -3.7357 -0.2423 -1.2870 8.3497 -1.6381 1.0422 -6.2781 -0.5365 1.3360 -0.0820 0.7400 1.7166 -0.7938 -0.9841 -0.0578 -0.4460 1.9012 0.8663 -0.3461 -0.1892 -1.1303 0.1287 1.9001 -0.4947 -0.8370 -0.7905 -0.5650 5.5121 1.2001 0.2578 -6.0297 -2.7552 -0.6304 -2.0910 3.5218 1.7187 1.3327 -1.6787 -1.6328 1.9907 2.9303 -1.1016 -2.9388 -1.2850 -0.6424 7.9250 -0.7741 1.6062 -5.4917 1.0667 -1.5112 -0.3614 -1.5974 -0.9156 4.3101 2.0284 -0.5883 -5.1315
-2.4964 0.9063 0.5438 -0.3733 1.9105 -0.8474 1.1578 0.6200 6.3483 0.5307 1.6194 -6.9590 1.0641 -3.6283 -0.0341 -2.5390 -1.8199 -0.5122 1.7613 0.2670 0.3196 -0.7468 -3.1235 1.9404 1.6741 -2.0094 -2.1240 -0.3116 1.1076 4.6284 1.9790 2.0690 -5.2141 -2.3287 2.7153 3.9823 3.0116 4.1468 -3.9131 -3.1829 3.4111 5.3324 1.9508 5.5182 -3.7436 -6.2320 -3.1520 1.2096 5.0880 2.5456 -1.1306 -5.3043 -4.0627 0.8636 -5.9965 -1.7430 0.9517 5.0638 1.2181 -1.3453 3.9977 3.1851 -0.4153 1.4992 -3.3616 5.0106 -0.2499 -2.2095 -5.3464 -2.6540 2.9494 6.4785 0.7784 5.2482 -4.3423 -4.0539 -3.6337 0.2617 -4.8460 -1.3470 0.3792 3.9532 0.4251 -0.8512 2.9558 2.4544 0.0204 0.8020 -3.7087 3.7850 0.2543 -2.5360 -4.1422 1.4054 -2.1164 5.5110 0.0555 -0.9178 -5.9374 -0.0348 -1.4420 3.6865 1.4232 -0.4163 -4.0045 -1.5925 2.0694 6.3997 0.6199 4.0129 -4.9393 -1.2872 0.1615 0.5060 -0.5421 0.5024 -0.7627 -1.6185 -1.3094 0.5815 0.8162 -0.1472 -0.7913 -0.5022 -2.1940 0.8535 0.8080 -1.5763 -1.0423 0.5152 0.2715 5.3614 1.0826 1.2803 -5.9159 -3.8201 -2.3251 0.0528 2.9266 1.0202 -0.2164 0.0759 -2.7809 3.1342 1.1105 -1.5960 -3.4383 -1.3254 1.8736 5.1452 1.7189 3.3429 -4.7760 0.4912 -2.5317 -0.0715 0.6083 -1.1126 4.8211 0.8588 -0.0510 -5.2921
-2.0907 2.2157 -0.0720 0.5342 2.1899 -0.8259 -0.6607 1.4182 6.3089 1.8768 0.3514 -7.1287 -0.7196 -3.3942 0.0338 -2.9707 -0.3587 -1.1588 1.4910 -0.0824 0.7674 -2.4237 -2.0740 1.6516 1.1074 -2.3217 -1.6402 0.7074 -0.0895 5.1984 2.7667 1.0467 -5.1121 3.2299 -0.9110 5.3693 3.6536 3.2517 -3.9144 3.8966 -0.9311 6.9792 2.8152 4.7161 -4.3509 -7.2323 -0.0387 -0.8074 5.5522 1.1011 0.0650 -6.5172 1.0573 -1.1183 -6.5559 -1.3016 -0.5704 4.7334 1.9324 0.7345 5.0703 -0.1978 -0.3682 -4.0745 -0.2981 4.5773 -0.1989 -2.7537 -5.1360 2.9721 -0.4888 7.8489 1.8625 4.4307 -5.2551 -5.0710 0.9739 -1.2254 -5.2158 -1.3772 -0.6607 3.3596 1.5413 0.9995 3.8050 -0.5686 -0.1048 -3.8755 -1.0487 3.3535 -0.0081 -2.9348 -3.8160 -3.0138 0.1641 5.2607 0.4941 -1.6820 -5.8305 -1.4835 -0.7752 3.6315 1.5791 -1.1043 -3.7440 1.7334 -0.1270 7.3567 1.7146 3.1173 -5.6536 -1.3113 1.0552 0.1801 -0.2007 0.9732 -0.8410 -2.2145 -0.1528 0.1403 0.7463 -0.1645 -0.5532 -1.6263 -1.3741 0.6623 0.2283 -1.4894 -0.8390 -0.5085 0.4949 5.5130 2.0046 0.2154 -5.9153 -4.4397 -0.1903 -0.9844 2.9032 0.3485 0.5746 -2.6332 -1.2653 2.8840 0.8946 -2.0582 -3.0881 1.7439 -0.3059 6.0716 2.5909 2.4031 -5.0169 -0.7096 -2.1587 -0.0472 -1.6637 -0.0919 4.7791 1.3522 -0.8880 -5.1625
-2.8758 0.8750 1.1550 -0.7217 1.9019 -0.1785 0.3661 0.2909 6.7182 0.1378 2.3947 -6.0682 0.2624 -3.8033 -0.1216 -3.1056 -1.7229 -0.1521 1.3443 0.0264 0.7138 -1.2486 -3.3278 2.1045 1.0835 -1.9705 -1.9301 -0.6495 0.9270 4.7332 2.0816 2.2026 -4.8154 -1.3135 3.1814 3.4891 4.1962 3.7955 -4.5360 -0.2869 4.5465 3.8291 4.7729 4.5170 -6.0142 -6.9483 -3.0347 1.2208 4.7246 2.2662 -0.6796 -6.7557 -1.7280 0.9663 -5.8548 -3.9748 1.0506 4.6743 0.9429 -0.9151 3.6497 2.9143 0.0507 0.9294 -3.6121 5.2242 -0.7274 -1.6575 -5.2058 0.6759 4.1743 4.6899 4.0087 4.1031 -7.0394 -5.4559 -1.2604 0.5176 -4.6479 -3.5406 0.6451 3.5451 0.1647 -0.4394 2.5996 2.1947 0.4860 0.2579 -3.9420 3.9789 -0.3017 -2.1500 -4.0279 0.8494 -2.3667 5.7267 -0.2919 -0.3432 -5.6449 -0.5700 -1.6734 3.8956 1.0040 -0.1505 -3.6067 0.6913 2.8639 5.1255 2.9717 3.2338 -6.7691 -1.7106 0.0765 1.0038 -0.9773 0.5055 -0.2454 -2.1239 -1.3738 0.9505 0.3376 -0.2155 -0.3946 -1.0403 -2.3306 1.0713 0.2395 -1.6047 -0.8066 -0.0334 0.0252 5.5880 0.8773 1.7514 -5.3295 -4.4336 -2.1259 0.3854 2.5335 0.7677 0.2118 -0.4515 -3.0044 3.3235 0.5844 -1.3591 -3.1905 -0.3014 2.2435 4.5669 2.9621 3.0048 -5.4922 -0.1611 -2.6504 0.0329 0.0829 -1.3480 5.0252 0.5446 0.3794 -4.8775
-3.2041 0.6054 1.3692 -1.7713 2.9225 1.5572 0.3485 -2.5189 6.3161 -0.2899 0.6927 -7.0464 1.9094 -0.7416 -0.9848 -2.1252 -0.3970 -1.1671 0.8957 1.7493 1.9178 0.1036 -2.3727 0.2462 1.6767 1.9538 -1.3313 -0.8402 -1.0131 5.0092 0.5103 -0.8392 -5.5097 -2.3540 1.1448 5.3321 1.6375 -3.2474 -5.4204 -1.9579 2.1314 6.7120 2.6560 -3.6404 -6.7789 -4.5147 -3.8560 -1.9933 2.9101 5.2850 3.2565 -3.2832 -3.7684 -2.5273 -5.0326 -2.7700 -1.1806 3.5058 4.5039 2.3374 1.6138 4.9130 3.7950 2.3505 -3.9468 2.8877 0.1300 3.7915 -4.2094 -0.9048 1.5965 7.3534 2.6820 -2.6006 -7.6301 -2.4650 -2.5952 -2.2763 -4.2787 -1.6797 -0.9538 2.8468 3.2948 1.8767 1.0015 3.7946 3.3668 1.7890 -3.5720 1.6027 0.6497 3.5210 -2.9983 1.8285 -3.4497 4.0234 -0.0240 2.7295 -5.1878 0.1366 -2.2511 2.7749 0.9608 1.1927 -3.5970 -0.3545 0.4337 6.8496 1.9477 -1.4757 -7.3089 -1.7971 0.5626 1.1769 -1.3217 1.9056 0.6726 -1.4789 -0.5390 0.1985 0.1842 1.9651 0.5931 -0.0889 -0.9394 0.1377 0.7700 1.1971 -0.4890 0.0729 -2.0359 5.2218 0.1683 0.4332 -5.9369 -2.9341 -1.5996 -1.5019 1.6305 2.9670 2.3502 0.7379 -2.7340 1.5435 1.0636 2.1666 -2.6728 -1.0323 0.0932 5.7975 1.3532 -1.6931 -6.1760 0.9264 -0.1942 -0.4686 0.6847 -2.5517 3.9664 0.3712 1.4760 -4.8954
-2.3598 1.3392 -0.0684 -0.1837 2.9740 0.0291 0.5098 -0.3303 5.1862 1.8847 1.1964 -7.1517 2.0933 -2.3235 -0.4526 -1.3008 -0.7814 -1.8027 1.6626 1.1879 1.4903 -0.3076 -2.7386 0.7163 3.1400 0.0361 -1.2345 -1.0448 -1.2627 6.6317 0.6765 -0.2226 -5.7700 -1.8908 -0.8527 9.1240 -1.4390 -1.7932 -6.1456 -1.7720 0.7922 9.6878 -2.7204 -1.0925 -7.0964 -5.0800 -2.6850 -2.4933 4.4600 4.3237 2.3288 -3.9570 -3.4238 -2.5423 -4.9974 -1.2548 -2.2597 3.1799 4.4641 2.7177 4.8912 3.0993 1.6788 -2.9834 -3.0786 3.4008 3.9549 2.6671 -3.7633 -1.2743 1.5632 8.7058 -2.3759 0.1560 -7.4556 -2.6642 -2.7965 -2.3288 -3.7989 -0.6706 -2.0853 2.2235 3.4019 2.4622 4.0097 2.1080 1.4585 -2.2799 -3.1630 2.1351 3.9206 1.9574 -2.6214 -2.4214 -2.4383 4.4412 3.1636 2.2427 -4.9047 -0.4368 -1.9499 3.1346 2.4111 0.3371 -3.6086 -0.9620 0.9640 7.5008 -1.1517 0.6404 -7.0390 -1.0907 0.7707 0.2192 -0.0124 1.6299 -0.3971 -1.0547 -0.6423 -0.3103 1.3656 1.1669 0.0025 0.0570 -1.4461 0.1666 1.8171 -0.0488 -0.6450 -0.4572 -1.0589 5.3913 1.6464 0.7306 -6.0410 -2.5877 -1.4760 -2.0814 2.6148 2.2776 1.8353 -1.0614 -2.6088 1.9956 3.0978 0.7625 -2.5323 -1.2330 -0.3015 7.5965 -0.5628 -0.2914 -6.3548 1.3633 -1.3321 -0.3241 -1.0977 -1.8500 4.3046 2.4160 1.1251 -4.8314
-1.8395 2.3150 1.0417 -0.3310 4.4190 0.1717 -2.7131 -2.4944 3.6141 0.2038 -1.4653 -6.8084 2.9520 -0.1730 -1.0410 -1.0771 0.3329 -1.0159 2.3638 3.3512 0.5920 1.2581 -1.1016 0.8351 2.6888 2.1362 -2.4755 -2.1248 -2.0885 5.8165 0.6608 -2.0785 -4.6209 -3.0805 -2.7107 8.2224 0.2782 -4.3344 -3.2624 -3.7684 -4.3068 8.3576 -1.3066 -5.0394 -3.4361 -4.1231 -2.6233 -0.4108 4.0974 7.2364 0.0684 -4.4438 -1.3214 -0.3045 -2.7528 -3.0103 -0.6938 3.2253 7.0349 1.0726 4.4833 6.1311 -0.7905 1.6992 -0.8795 4.6238 0.9851 2.5755 -5.7912 -3.6796 -4.9302 7.1701 -2.0539 -4.2625 -4.2390 -3.4228 -0.3052 -0.4882 -1.8059 -2.0694 -0.8590 2.6453 5.7195 1.2764 3.9600 4.9084 -0.5907 1.9829 -0.7744 3.2026 1.6174 2.8472 -4.6344 0.4936 -1.3056 5.0433 0.6195 1.2074 -6.1178 -0.2775 -1.5233 2.7576 1.6682 0.4968 -4.0548 -3.0959 -4.2513 6.1184 -1.4816 -3.1167 -4.7546 -0.4692 2.1013 0.7343 -0.0273 3.1129 -0.2968 -0.3016 0.6870 0.2389 1.4523 3.0270 -0.5792 1.0668 0.2028 0.2273 1.8786 1.8483 -1.3052 -1.8920 -2.1268 4.4506 0.5562 -1.1764 -5.6685 -2.1499 -0.6618 -0.7409 2.9761 4.7015 0.4608 1.0236 -1.0602 2.3033 1.9477 1.7695 -3.7163 -2.7424 -3.0770 6.5431 -0.2590 -3.0512 -4.3259 2.0308 0.5869 -0.7136 -0.5390 -1.6346 4.0727 0.9430 0.2051 -5.2794
-2.1719 1.2150 0.6120 -0.3071 3.1668 0.1459 -1.2175 -1.3180 7.1644 0.8862 0.4266 -7.1562 2.6944 -1.7646 -0.2462 -1.0647 -0.9272 -1.0466 2.0745 1.9389 1.3068 0.6600 -2.3086 1.4790 3.1752 0.5861 -1.4818 -2.4993 -1.1945 5.2378 -0.0775 -0.6771 -5.3581 -4.9221 -0.3721 4.5122 -2.1256 -2.3748 -5.2066 -5.6109 0.8783 5.5113 -3.4960 -1.9626 -6.2016 -3.1709 -4.6527 -1.3327 4.4172 5.5171 1.0127 -3.8718 -3.5208 -1.1393 -1.7238 -4.5996 -1.4324 3.2908 5.5289 1.7481 4.8485 4.2915 0.3659 2.2834 -1.8339 4.9021 3.0437 2.8457 -4.4602 -4.7495 1.1852 6.4964 -3.2366 -0.8242 -6.8672 -3.1807 -2.2471 -1.0246 -1.0843 -3.4210 -1.3306 2.4911 4.3226 1.8725 4.1246 3.1675 0.5061 2.1268 -2.0536 3.4758 3.3389 2.3437 -3.2478 1.2046 -1.5999 5.6697 2.1510 2.1199 -5.3443 -0.2641 -1.7847 3.7518 2.0031 0.3638 -3.6765 -3.5463 0.5095 6.5447 -2.0167 -0.2133 -6.6607 -0.7905 0.8978 0.7144 -0.0031 1.8191 -0.1894 -0.6027 -0.5559 0.3539 1.4849 1.6180 -0.0531 0.7034 -1.0923 0.6910 2.0130 0.3996 -0.6330 -1.3142 -1.3426 5.9402 0.7979 0.2179 -5.9493 -1.8369 -2.1997 -1.0870 2.8794 3.1902 1.2580 0.9044 -2.0006 2.9150 2.7758 1.0696 -2.8301 -3.5170 -0.3307 5.5566 -1.3427 -0.9337 -5.8179 1.8501 -0.8748 -0.0798 -0.1238 -1.5705 5.0739 1.6454 0.9315 -4.9651
-1.8047 3.1713 -0.7952 0.8941 3.1360 -0.4157 -0.4370 -0.0961 6.9342 1.5214 1.1195 -4.4789 -0.7624 -2.2415 0.9325 -2.1928 0.3929 -1.6153 1.0049 1.2837 1.9014 -2.9361 -0.6956 1.4584 1.6521 -1.3673 0.0253 0.0318 -1.8377 5.4803 1.9950 -0.4603 -6.1028 2.0730 -3.3760 4.7313 1.9055 -0.4609 -8.7617 3.6519 -2.7706 5.1533 0.5820 0.4338 -9.4577 -6.1681 0.4958 -3.2113 5.0110 2.5166 2.7951 -5.3631 1.5585 -3.3916 -5.6925 -0.6549 -2.4644 4.0321 3.4384 2.7576 4.6956 1.1150 2.5836 -3.9445 0.8053 4.8097 2.1600 -3.4165 -3.0730 3.5221 -1.5822 5.7667 -0.1660 0.9595 -8.4729 -4.0170 1.5498 -2.8465 -4.4492 -0.6596 -1.9514 2.6656 3.0343 2.4795 3.4279 0.7384 2.3397 -3.9353 0.4774 3.3963 2.0002 -3.0734 -1.7812 -2.9508 0.3775 5.6083 2.1024 -2.3991 -4.1104 -1.8273 -0.6679 3.7359 1.8302 -0.7362 -2.3795 2.2490 -1.0801 5.9533 0.2112 0.7165 -7.1671 -1.2381 2.1291 -0.0121 0.1903 1.9035 -0.4507 -2.0769 0.8851 -0.1831 0.9017 0.9105 0.4344 -1.7804 -0.1844 0.7516 0.5271 -0.4735 0.2297 -0.6800 -0.7300 5.9111 1.7902 -0.0351 -4.8035 -3.5829 0.4940 -2.1337 2.3770 1.7401 2.2510 -2.9174 -0.2306 2.8742 1.8066 -1.6793 -1.4222 1.4026 -1.9313 5.4604 1.2867 -0.0099 -7.1875 -0.6792 -1.0413 0.6422 -1.8451 -0.3878 5.0516 1.9453 -1.1033 -3.7789
-1.7737 3.4461 -1.0279 0.9107 3.5396 -0.4955 -0.7340 -0.2615 6.8620 2.2722 -2.1099 -6.0207 -0.5621 -1.9429 0.6373 -1.9996 0.6830 -1.9253 1.0772 1.6334 1.7058 -2.8107 -0.4923 1.1257 1.8276 -0.9879 -0.1557 0.3636 -1.1814 5.0401 0.4916 -0.7866 -5.3221 2.5410 -2.6618 4.6526 -1.7255 0.0738 -6.5177 2.9604 -3.7249 5.9687 -1.5047 0.6548 -8.1464 -5.9245 -0.7525 -2.8684 5.1403 2.2658 2.9137 -4.9317 -1.6381 -2.6697 -5.6421 0.6717 -2.8397 4.6783 1.0071 2.8073 4.2607 3.3878 2.6377 -3.9463 0.9540 4.4638 4.4133 -0.3250 -2.7735 2.0664 -3.5769 6.9613 -0.2091 0.5447 -8.4866 -3.5876 -1.1685 -2.3843 -4.3951 1.1077 -2.5855 3.2999 0.7726 2.4190 2.9865 3.1706 2.2654 -3.9041 0.6135 3.0542 3.8009 -0.4493 -1.5822 -2.9388 0.5889 5.2756 3.6805 -0.5987 -3.9967 -1.7914 -0.5040 3.4473 1.7498 -1.1934 -2.6457 1.0361 -2.6750 6.7818 0.6683 0.0315 -7.5530 -1.1827 2.4157 -0.2472 0.2730 2.2763 -0.6337 -1.9563 1.1401 -0.4746 0.9991 1.2783 0.2333 -1.6524 0.0745 0.4612 0.6781 -0.1157 -0.0084 -0.6962 -0.5447 5.6668 1.7415 -1.3683 -5.2005 -3.3353 0.1512 -2.3085 2.4911 1.8099 2.1351 -2.8557 -0.0658 2.5540 2.4102 -0.8705 -1.5179 1.1757 -2.1301 5.6122 -0.0068 -0.2571 -6.4834 -0.5168 -0.7355 0.3673 -1.8111 -0.1687 4.7511 2.4004 -1.0058 -3.9298
-2.2564 0.5547 1.0308 -0.8542 2.8737 0.7238 -1.1889 -2.0571 6.5859 -0.6023 1.3204 -6.7732 2.9886 -1.2641 -0.5623 -0.9635 -1.0584 -1.0441 1.8364 1.9754 1.5079 1.1546 -2.5259 1.0083 2.7751 1.2373 -1.6082 -1.9976 -1.0438 4.6606 -0.6024 -0.3833 -5.2104 -3.9723 0.5957 3.9725 -0.8710 -3.0230 -5.0231 -4.3387 1.8474 5.1256 -0.3091 -3.9260 -6.4031 -3.7571 -4.2997 -1.2305 3.0165 6.0817 1.8746 -4.2163 -3.0506 -1.0361 -2.3297 -4.5382 -1.3501 2.0671 5.5936 2.6930 3.6628 5.2083 0.9116 2.3895 -3.0524 4.5769 1.5690 3.7588 -4.0956 -3.5259 1.7222 6.1887 0.1867 -3.0757 -7.3181 -3.2850 -1.9394 -0.9634 -1.4654 -3.5110 -1.2675 1.6697 4.2004 2.5935 3.3071 3.9138 0.8309 2.3563 -2.9972 3.1262 2.1949 3.1922 -3.0490 1.3290 -2.6390 5.2941 0.7426 2.9476 -4.9702 0.0881 -2.1691 3.2708 1.3324 1.0039 -3.6439 -2.5949 0.7010 6.1843 0.1660 -1.7246 -7.0319 -0.8384 0.4991 0.9792 -0.3347 1.6720 0.1743 -0.4386 -0.8141 0.3571 1.1710 1.7429 0.1649 0.9550 -1.1756 0.5144 1.8330 0.7262 -0.6306 -1.0627 -1.7510 5.4037 -0.2366 0.8606 -5.6949 -1.9614 -2.1601 -1.0606 2.2462 3.3963 1.6814 1.2606 -2.5391 2.4937 2.0526 1.7668 -2.7992 -2.7287 0.0417 5.0753 -0.3686 -1.5695 -5.8596 1.9901 -0.6084 -0.2386 0.1333 -2.1609 4.6157 0.6262 1.6236 -4.7558
-2.6544 1.9325 -0.4175 -0.0299 2.0616 -1.2043 1.6003 -1.0450 4.1002 2.5109 0.9321 -6.7404 -0.8835 -3.5583 -0.1249 -3.3729 -0.7428 -1.3283 1.0775 -0.0908 0.4996 -2.6288 -2.2836 1.5061 0.8662 -2.4127 -1.8408 0.8684 -0.5752 6.2473 2.9439 1.4244 -4.5211 1.8622 0.4820 8.4781 3.4885 3.4544 -2.8932 3.0721 1.7137 8.2420 2.8247 4.9913 -3.3722 -7.6231 -0.3911 -0.8709 5.1458 1.0637 -0.1986 -6.9154 -0.9747 0.1127 -6.9499 0.0737 -2.0705 4.3114 1.9266 0.4087 4.6759 -0.2575 -0.5735 -3.1084 -0.8307 4.9936 0.1710 -2.3856 -5.5270 3.2575 1.9069 6.9251 2.1284 4.8370 -4.5111 -5.4799 -1.1296 -0.0255 -5.6161 -0.0536 -2.1895 2.9300 1.5511 0.6538 3.4069 -0.6179 -0.3143 -3.3840 -1.3434 3.6639 0.1484 -2.7367 -4.2281 -1.8383 -0.6916 5.4133 0.9354 -1.2264 -5.9546 -0.9994 -1.5774 3.3190 1.6675 -0.9340 -3.6666 2.5118 1.1496 6.0425 2.0617 3.5758 -5.0707 -1.7815 0.8541 -0.1109 -0.6808 0.8005 -1.1436 -2.5840 -0.4224 -0.0723 0.3427 -0.2553 -0.8157 -1.8994 -1.5798 0.4694 -0.0763 -1.6200 -1.0703 0.6899 -0.8939 4.9101 2.3900 0.6743 -5.5465 -4.8446 -0.6570 -1.1149 2.4870 0.3348 0.2875 -2.3715 -1.6857 2.8460 0.9036 -1.9635 -3.2579 1.7487 0.3602 6.7341 2.7359 2.7649 -4.3151 -0.9562 -2.3284 -0.2445 -0.7397 -1.0784 4.5418 1.6539 -0.5223 -5.0595
-1.2382 2.5693 -0.5542 1.4864 2.7206 -0.5514 -2.1428 0.6221 6.5921 1.1517 -0.1813 -6.9384 0.4488 -2.9167 0.2018 -1.5548 -0.0557 -1.8249 2.0630 0.5418 1.3436 -1.8475 -1.7663 0.9882 2.5213 -1.6985 -1.1128 -0.2376 -0.1840 5.5516 0.9492 1.1753 -5.0735 2.2382 -0.7669 6.3312 -0.3227 3.3541 -4.2338 2.3675 -1.4912 7.9112 -1.8908 3.6182 -4.9458 -5.7432 -0.2245 -2.7231 6.1241 1.7152 2.0469 -5.1043 0.9562 -2.8083 -5.0174 -1.4135 -2.3136 5.8589 0.4266 1.7663 5.0405 2.6781 2.1272 -4.4252 0.0259 3.1316 2.2369 -3.4199 -4.4306 1.1397 -1.6217 8.4420 -2.1681 2.6133 -5.7942 -3.6881 1.0394 -2.4960 -3.7062 -1.3367 -2.0241 4.4896 0.0010 1.5352 3.7726 2.2852 1.9110 -3.7899 -0.6425 2.0135 2.4449 -3.1963 -3.1201 -3.7283 0.2588 4.2567 1.8259 -2.3300 -5.2984 -1.7558 -0.7962 3.3244 1.9654 -0.8388 -3.3971 0.0582 -1.1930 7.6979 -1.2287 1.6134 -5.9516 -0.4921 1.4627 -0.0672 0.8681 1.4542 -0.7252 -1.2612 0.1967 -0.3577 1.7630 0.3939 -0.1362 -0.8017 -0.9871 0.3513 1.4256 -0.9634 -0.5091 -1.5870 0.1211 5.6174 1.2303 -0.0153 -5.7250 -3.0170 -0.0585 -2.1020 3.4879 0.8988 1.5786 -2.5004 -1.0179 2.0943 2.2839 -1.8575 -2.5769 0.5045 -0.7194 6.5750 -0.2149 1.8919 -5.1915 0.3668 -1.6927 0.0338 -2.3372 -0.1621 4.3611 1.6883 -1.0865 -4.8011
-1.9920 1.6222 0.6128 0.4144 1.9592 -0.6549 -0.7932 0.1573 6.8794 1.3293 1.8234 -6.7694 -0.1064 -3.7810 -0.2640 -2.8852 -0.8576 -0.6438 1.8391 -0.3865 0.3875 -1.6902 -2.9017 1.7056 1.0573 -2.3192 -2.2281 0.5500 0.2557 4.9916 2.3788 1.9479 -4.7111 2.5075 1.7038 3.9274 3.4646 3.7412 -3.0743 2.6873 3.3068 4.5857 2.6914 5.3021 -3.0656 -6.5174 -2.5613 0.8597 5.8042 0.5643 -0.9336 -5.6820 -3.3277 0.1359 -6.2181 -1.1550 1.0646 5.3693 -0.7046 -1.0343 4.9415 1.5828 -0.3629 -3.7985 -1.8016 4.6740 -0.6781 -1.6900 -5.5035 1.7466 3.5101 5.5242 1.6606 5.2909 -3.9278 -4.4681 -2.7544 -0.4165 -5.0965 -0.6212 0.5479 4.0329 -1.0511 -0.5844 3.6982 1.2657 0.0403 -3.3885 -2.4198 3.4281 -0.3347 -2.2589 -4.3329 -2.9216 -1.0630 5.3761 -0.0316 -0.4616 -5.9341 -1.1653 -1.5258 3.7701 1.3416 -0.5531 -3.9436 0.8612 2.4851 5.7938 1.4029 4.1252 -4.6223 -1.0900 0.5269 0.5381 -0.2192 0.6883 -0.6863 -1.8891 -0.7537 0.4977 0.8429 -0.3774 -0.7555 -1.1303 -1.9731 0.7346 0.3605 -1.6970 -1.1150 -0.5834 -0.1112 5.7001 1.5429 1.3658 -5.6506 -4.1710 -1.4602 -0.1971 3.2178 -0.0999 -0.0926 -2.1327 -2.2592 2.9713 0.6974 -1.6516 -3.5096 1.1592 1.4844 5.0236 2.2783 3.2394 -4.2595 -0.2780 -2.5556 -0.2153 -1.5549 -0.9052 4.9000 0.9386 0.0908 -5.1814
-2.5385 1.2533 0.2582 -0.0687 2.0643 -0.5689 0.1144 0.0552 6.7731 1.2434 0.8938 -6.9865 0.5810 -3.6277 0.2110 -2.6051 -1.4119 -0.9524 1.5715 0.1462 0.9489 -1.5718 -2.9829 1.7682 1.8202 -2.0037 -1.5815 -0.7108 0.9541 4.8025 2.0062 1.8101 -5.0059 -0.9630 3.3307 3.6405 2.2423 4.1303 -3.7277 0.2346 4.5110 4.0966 0.9667 5.2776 -4.0339 -6.7159 -2.3817 -0.2180 5.2024 2.3223 0.2817 -5.8277 -3.3781 -0.3847 -6.2857 -1.0000 -0.3337 4.1874 2.9212 0.9303 5.0753 0.9413 -0.1476 0.0759 -3.8076 5.1025 0.4027 -2.7361 -4.9799 1.1024 3.9535 4.9584 0.0732 4.7340 -4.8780 -4.4330 -3.0717 -0.6513 -4.9979 -0.7162 -0.5964 2.9542 2.1949 1.1776 3.9410 0.2624 0.0982 -0.4796 -3.9472 3.7688 0.7674 -2.8804 -3.6928 0.1493 -2.5945 5.6785 0.6566 -1.4841 -5.6713 -0.8680 -1.5595 3.7408 1.6955 -0.6407 -3.6522 0.9096 2.6337 5.3172 0.3013 3.4496 -5.3316 -1.4333 0.3800 0.4431 -0.3888 0.6808 -0.6055 -1.9194 -1.0457 0.3517 0.8700 -0.1133 -0.3715 -0.9903 -2.0566 0.8154 0.7763 -1.5233 -0.6965 -0.2659 -0.0788 5.6134 1.4867 0.7919 -5.7876 -4.0268 -1.7910 -0.7275 2.8250 0.9235 0.7565 -0.9195 -2.8639 3.1023 1.4206 -1.7838 -2.9980 -0.1459 2.2004 4.6997 1.4081 3.0275 -4.8023 0.1480 -2.4719 0.1162 -0.3295 -1.4186 4.9660 1.2760 -0.4727 -5.0339
-2.8311 0.2526 0.5575 -1.2093 2.4491 0.4831 -0.8605 -1.1170 6.8708 0.9176 2.1108 -6.7224 2.4452 -1.9971 -0.1522 -1.3137 -1.4723 -1.2880 1.1866 1.3306 1.7700 0.2954 -3.0216 1.2059 2.7289 0.5318 -1.0326 -1.6985 -0.2209 4.9021 0.8446 -0.0215 -5.8193 -3.3596 1.7680 4.3172 -0.1281 -2.3373 -6.7020 -3.0805 3.2504 5.1882 -1.6726 -2.2348 -7.5024 -4.2689 -4.4541 -2.1443 3.7038 4.7696 2.2475 -4.6505 -3.1708 -2.0161 -2.8752 -4.8179 -1.9611 4.2690 3.5787 1.9804 2.2632 4.8707 2.3982 1.7975 -3.5452 4.6711 2.5785 3.6063 -3.1514 -2.0237 3.0943 6.0040 -2.0919 -0.9579 -7.4967 -3.6661 -2.1492 -1.7074 -1.9646 -3.8734 -1.6643 3.4362 2.3979 1.8337 1.4912 3.7782 2.2575 1.5728 -3.6336 3.2395 2.7731 2.7804 -2.1086 1.0397 -2.7288 5.4252 2.0181 3.0911 -4.3866 -0.2474 -2.0607 3.4878 1.9237 0.8906 -3.3716 -1.3826 1.8705 6.0163 -1.2852 -0.0092 -6.8999 -1.4326 0.0820 0.7373 -0.6960 1.2016 0.0391 -1.0365 -1.2662 0.1894 0.7862 1.1566 0.3172 0.2841 -1.7138 0.5802 1.5170 0.1003 -0.3610 -0.8781 -1.0577 5.6445 1.1109 1.3384 -5.7872 -2.3768 -2.4862 -1.5199 2.0979 2.4955 1.9415 0.6007 -2.9048 2.6611 2.4189 1.3746 -2.2173 -1.9983 1.0879 5.1848 -0.2211 -0.6055 -6.4578 1.4704 -1.2507 0.0056 -0.0160 -1.9390 4.8082 1.6943 1.7883 -4.4947
-0.9451 1.8943 0.4616 0.8335 3.3242 -1.0389 -2.5021 -3.0304 4.2701 -1.0302 -0.6835 -6.3229 3.5589 -1.6911 -0.1325 -0.3715 -0.8044 -0.6081 3.3558 2.2729 -0.0037 1.7230 -1.6316 1.8298 3.6443 -0.0820 -2.3413 -2.9424 -1.2200 5.6532 -0.9257 0.7367 -4.4994 -5.0533 -0.2025 6.9071 -2.4956 2.0365 -2.7909 -6.5608 -0.3258 6.0428 -4.0047 1.2466 -2.4252 -3.7553 -3.0031 0.8492 5.7472 5.2618 -1.9321 -3.9203 -1.7241 0.4679 -2.4378 -3.6110 0.7913 4.7442 5.6451 -1.1220 6.0384 3.8504 -2.1086 1.0616 -0.0214 5.2343 2.7230 -2.3241 -5.2065 -6.3511 -0.9488 4.8704 -4.0694 0.0816 -3.0926 -2.7800 -0.9551 0.0032 -1.3857 -2.9032 0.3418 3.9351 4.6462 -0.4465 5.3007 2.9254 -1.4694 1.7201 -0.3560 3.9826 3.3990 -1.7743 -4.1804 -0.1569 -0.5196 5.5143 1.4239 -1.7967 -5.5896 -0.2305 -1.6569 3.3767 1.6732 -0.1058 -3.8786 -5.0658 -1.3524 4.5658 -3.0031 -0.2702 -3.8961 0.3959 1.4389 0.3652 0.9966 1.9168 -0.9354 0.4044 -0.0654 0.4659 2.4659 1.5901 -1.0247 1.7026 -0.6517 0.7565 2.7845 0.1883 -1.2023 -2.1672 -1.9652 4.7797 -0.4374 -0.2518 -5.3386 -1.5577 -1.5143 -0.0538 4.1845 3.3371 -0.6322 1.0905 -1.1291 3.0789 2.8422 -0.6333 -3.4720 -4.2958 -1.0183 5.5550 -2.1183 0.6759 -3.8257 2.7387 -0.7651 -0.1824 -0.8385 -1.3509 4.5355 0.9143 -0.7297 -4.9464
-1.6293 1.3975 0.5649 0.3016 3.1006 -0.3285 -1.3010 -0.4557 6.8901 -0.5673 -0.8762 -6.5210 2.8956 -2.0767 -0.3274 -0.8679 -1.0130 -0.9315 2.6690 1.8450 0.7730 0.9768 -2.2575 1.5717 3.3994 0.0670 -1.9304 -2.4741 -1.1593 5.0228 -0.6567 0.8552 -4.9878 -4.9280 -0.9528 4.0195 -2.4240 2.2691 -3.5839 -5.7522 0.5400 4.3784 -4.0027 1.5437 -3.4444 -4.4070 -3.3905 -0.4608 5.4189 5.0363 -0.0203 -4.5309 -2.0607 -0.6219 -3.0876 -3.9958 -0.4305 5.7874 3.7717 -0.2919 4.1094 5.3044 0.5477 2.3576 -1.3475 5.0164 3.2888 -1.9040 -5.1214 -4.9502 1.3240 5.1191 -4.0174 0.3774 -4.1119 -3.3451 -1.2334 -0.7661 -1.9898 -3.2288 -0.5576 4.8766 2.6763 -0.0146 3.2620 4.2901 0.7983 2.3105 -1.7224 3.6140 3.6980 -1.4134 -3.9367 1.2188 -1.0903 5.6843 2.0200 -1.4765 -5.6859 -0.0996 -1.5028 3.6949 1.7173 -0.0311 -3.7687 -3.6952 0.8495 5.4459 -2.8589 -0.0244 -4.7448 -0.2749 0.9689 0.5621 0.4778 1.7025 -0.5242 -0.2423 -0.5251 0.3641 1.9570 1.4009 -0.4912 1.0408 -1.1402 0.6528 2.3474 0.0746 -0.9287 -1.3211 -0.8781 5.7374 -0.0674 -0.2397 -5.5981 -2.1198 -1.7880 -0.7085 3.6524 2.9242 0.4858 1.1291 -1.7757 2.9714 2.8766 -0.4449 -3.2283 -3.5656 -0.3333 4.9285 -1.9504 0.8777 -4.5341 2.1385 -1.1042 -0.2095 -0.0637 -1.1796 5.0004 1.2630 -0.5748 -5.0332
-2.4386 1.8700 0.3526 0.0083 1.9792 -0.8530 -0.1652 0.9800 6.4923 2.1079 0.7661 -6.8046 -0.7691 -3.6664 0.1493 -3.3176 -0.7226 -0.7449 1.3013 -0.2546 0.5844 -2.3654 -2.4517 1.9594 0.7362 -2.4884 -1.7617 1.1101 -0.2847 5.0311 2.9093 1.1381 -4.6666 3.5799 -0.3072 4.0413 4.1583 3.0443 -3.3019 4.3816 1.2399 4.0122 3.4555 4.6324 -3.4256 -7.4934 -0.6045 0.2051 5.3007 0.9577 -0.3522 -6.8809 0.5256 -0.1914 -6.7376 -1.8395 0.3144 4.4867 1.8125 0.2929 4.8022 -0.3376 -0.7777 -3.6996 -0.7910 5.1094 -0.5456 -2.1634 -5.2748 3.5477 2.1816 4.4854 2.3826 4.5801 -4.2334 -5.4650 0.5085 -0.5126 -5.4254 -1.8555 0.0203 3.1158 1.4316 0.5799 3.5388 -0.6993 -0.4927 -3.6352 -1.4970 3.8447 -0.4005 -2.5834 -4.0048 -2.5761 -0.3048 5.6643 0.3070 -1.1081 -5.7948 -1.2415 -1.1191 3.8123 1.4426 -1.0481 -3.6568 2.2879 1.7908 4.8948 2.0367 3.3605 -4.7836 -1.5855 0.7383 0.4333 -0.6505 0.7257 -0.7528 -2.4348 -0.5076 0.4691 0.3872 -0.3588 -0.6189 -1.7339 -1.7098 0.8838 -0.0883 -1.7089 -0.8534 -0.0807 0.1664 5.5754 2.1072 0.5084 -5.6041 -4.7593 -0.6309 -0.3928 2.6576 0.2235 0.2055 -2.4565 -1.6549 3.2148 0.6132 -1.9822 -3.1557 2.1859 0.5092 4.7176 2.8916 2.4773 -4.3689 -0.8619 -2.4348 0.0616 -1.2954 -0.4662 4.9895 1.2636 -0.5669 -5.0172
-1.4904 1.4076 0.2074 0.7809 2.8471 -0.2782 0.1882 -0.1004 5.2376 0.0840 1.0825 -6.8516 2.5744 -2.6442 -0.5473 -0.9412 -0.9025 -1.5378 2.7371 1.0316 0.9671 0.3085 -2.8147 0.8881 3.4772 -0.4601 -1.9324 -1.8627 -0.6090 6.1906 -0.3224 1.6702 -4.6494 -3.2224 0.3071 8.2839 -2.2719 2.5317 -3.0619 -3.2138 2.0389 8.4750 -3.8591 1.9181 -3.4335 -4.6437 -3.0524 -1.3341 5.9700 3.8456 0.9865 -3.5220 -3.7092 -1.6810 -4.5983 -1.6239 -1.0798 4.8344 4.1430 1.6435 6.1033 2.5687 0.3089 -2.7753 -3.2092 3.0791 3.2315 -1.4480 -5.5388 -2.4978 2.5917 7.4808 -3.7776 1.0844 -4.4846 -2.2626 -2.9930 -1.7818 -3.4329 -0.9604 -1.1753 3.7329 3.1968 1.6540 5.0905 1.6845 0.3344 -1.8390 -3.3395 1.9794 3.6384 -1.3739 -4.2582 -2.4917 -2.3919 4.1083 2.1174 -0.6358 -5.9975 -0.3730 -1.7729 3.1024 2.0027 0.3471 -3.7900 -1.9315 1.7541 6.5395 -2.5374 0.8699 -5.0539 -0.2342 0.7516 0.2829 0.7606 1.4648 -0.6012 -0.4105 -0.6872 -0.1331 2.1486 0.9052 -0.4250 0.6828 -1.5756 0.2255 2.3611 -0.4033 -1.0066 -0.8848 -0.6972 5.2120 0.3613 1.0098 -5.6585 -2.2132 -1.6748 -1.5170 3.8449 2.0238 1.0051 -0.6913 -2.6366 1.9761 2.9816 -0.4590 -3.3391 -2.2323 0.5327 6.8568 -1.6679 1.5746 -4.3980 1.9169 -1.6007 -0.4414 -1.2486 -1.6354 4.1161 1.5205 0.2274 -5.1540
-1.9434 2.1905 -0.4741 0.6965 2.8324 -0.2413 1.0500 -1.1756 4.8471 1.0371 -0.1969 -6.9852 0.6802 -2.9548 -0.3011 -1.6621 -0.2791 -2.0427 1.6156 0.6005 1.4107 -1.7510 -2.2701 0.6706 2.6325 -1.2453 -1.1400 -0.5037 -0.8922 6.5408 1.0029 1.3682 -5.2808 -0.5340 0.0990 9.0113 -0.3964 3.4664 -4.4286 0.4497 1.5168 9.2547 -2.0470 3.5292 -4.9845 -5.6806 -0.7694 -3.4532 5.4696 2.1967 2.3969 -5.1680 0.4707 -3.3595 -4.8803 -1.9156 -3.0605 5.3732 0.9065 2.0287 4.2758 3.0193 2.4769 -3.6436 -1.6186 3.9049 3.1126 -2.8883 -4.4715 1.0563 1.8395 8.0996 -2.3039 2.4457 -5.7369 -3.8145 0.6605 -2.8676 -3.6287 -1.7394 -2.5997 4.0762 0.3399 1.7045 3.0748 2.4964 2.1719 -3.3439 -1.8910 2.5123 3.1303 -2.6571 -3.1462 -2.6458 -1.3942 4.7775 2.5093 -1.9193 -5.3700 -0.9869 -1.7117 3.0388 2.0321 -0.5195 -3.4544 0.8122 1.0519 6.9913 -1.2880 1.5311 -5.9313 -1.0265 1.1880 -0.0581 0.3430 1.5071 -0.6132 -1.5293 -0.1534 -0.5340 1.3980 0.5641 -0.0903 -0.8640 -1.2925 0.0749 1.3578 -0.7813 -0.6248 -0.1147 -1.1506 5.2346 1.2946 0.1305 -5.8306 -3.0791 -0.3983 -2.4807 2.9728 1.1094 1.7475 -2.0685 -1.9189 2.0842 2.5614 -1.4289 -2.6161 -0.0040 0.1059 7.3413 -0.2359 1.9581 -5.3032 0.4071 -1.7474 -0.2879 -1.2624 -1.4348 4.3282 1.9846 -0.7800 -4.8810
-2.2243 1.4391 0.2776 0.3378 2.3211 0.0040 -1.5266 -0.1886 6.6935 0.0289 -0.0351 -6.6449 0.8418 -3.4526 -0.0425 -2.0256 -1.0074 -1.3308 1.7517 0.2086 1.4813 -1.4680 -2.9460 1.3519 2.4540 -1.5806 -1.2036 -0.9985 0.8730 4.6965 0.1569 1.3250 -4.7714 -0.4014 3.3183 3.8514 -0.5868 3.8221 -4.2376 0.6125 4.2468 4.9215 -0.3461 4.9571 -5.5381 -6.1913 -1.9871 -1.5797 5.3013 2.6082 1.6177 -5.2789 -2.9652 -1.7230 -5.7588 -0.6132 -1.3984 4.1581 3.0952 2.1328 5.3351 1.2647 1.0679 -0.3857 -3.8675 4.8927 2.5085 -2.8733 -4.7190 0.8995 3.5128 6.0103 0.2129 4.3241 -6.5836 -3.8616 -2.6527 -1.6573 -4.4470 -0.3210 -1.3548 2.9523 2.2872 2.1128 4.2220 0.5100 1.0635 -0.6728 -3.9593 3.4717 2.7078 -2.7690 -3.3923 -0.5170 -2.6926 5.5349 1.7513 -1.8532 -5.4237 -1.3051 -1.6246 3.5079 1.4988 -0.6716 -3.3272 0.3828 2.2343 6.0915 0.4831 2.9760 -6.4609 -1.1594 0.5296 0.5139 0.0494 0.9602 -0.2819 -1.6099 -0.8553 0.1224 1.2593 0.1234 0.0493 -0.7608 -1.9305 0.5954 1.2525 -1.2294 -0.4701 -1.1887 -0.2301 5.5147 0.4322 0.1827 -5.5062 -3.4599 -1.3850 -1.4514 2.9742 1.0524 1.5789 -1.0977 -2.8760 2.7953 2.1720 -1.6301 -2.6653 -0.3172 2.0177 5.0214 0.0972 2.5953 -5.2823 0.4652 -2.2753 0.0205 -0.9707 -1.5182 4.8071 1.2605 -0.7941 -4.7537
-1.4215 1.9181 -0.0806 1.2145 2.6153 -0.2776 -2.8002 1.0924 5.3904 0.5530 0.6912 -6.8039 1.3690 -3.1563 -0.1570 -1.4226 -0.5734 -1.6281 2.4239 0.4074 1.2060 -0.9880 -2.5941 0.9744 2.9715 -1.4356 -1.5475 -0.6447 0.2390 5.2565 0.5214 1.7313 -4.7382 1.6291 0.6943 6.5546 -0.9508 3.4640 -3.3522 1.4731 0.8747 8.2805 -2.6541 3.4445 -3.7197 -5.5766 -1.5492 -2.0735 6.3214 2.1739 1.4161 -5.2050 -0.2564 -2.0814 -4.5791 -2.5878 -1.8888 5.2638 2.8618 1.8834 6.1411 0.8311 0.8948 -4.1677 -2.0942 2.9887 2.7255 -2.5401 -5.1289 0.1778 0.7691 8.6236 -2.8896 2.5406 -4.6858 -3.8065 0.0988 -1.9097 -3.2839 -2.2591 -1.7346 3.9373 2.2725 1.8382 4.9163 0.2768 0.8726 -3.2264 -2.5535 1.9867 3.0104 -2.5284 -3.8130 -3.7710 -1.2230 3.9324 2.0022 -1.4309 -5.7284 -1.5309 -1.1550 3.0037 1.9969 -0.3449 -3.5694 -0.7460 0.5408 7.6227 -1.8202 1.8213 -5.1801 -0.4269 0.9396 0.1833 0.8264 1.2833 -0.5867 -0.9715 -0.4176 -0.1888 1.9669 0.3600 -0.2402 -0.2160 -1.5525 0.3204 1.8433 -0.9908 -0.7480 -1.9909 0.2901 4.9341 0.8559 0.7114 -5.6143 -2.8812 -0.8612 -1.7257 3.7648 1.0392 1.3286 -1.9635 -2.0888 1.9758 2.6162 -1.3922 -2.9958 -0.1081 0.4817 6.4948 -0.7513 2.2078 -4.5543 1.0235 -1.9676 -0.1846 -2.3968 -0.7460 3.9502 1.6457 -0.3734 -4.9754
-1.4689 2.7781 -0.7749 1.2399 2.7400 -0.4964 -0.9747 0.8591 6.3764 1.8494 -0.6161 -6.6711 -0.2913 -2.7834 0.3015 -1.8254 0.1272 -1.9702 1.4262 0.6469 1.5743 -2.5211 -1.3751 0.9308 2.0719 -1.7584 -0.6114 0.3779 -0.4394 5.0124 1.2869 0.8484 -4.9662 2.8282 -1.4638 5.1349 -0.0363 3.1160 -4.5568 3.3370 -1.9939 6.7124 -1.4146 3.3691 -5.5920 -5.9351 0.4581 -3.1347 5.4171 1.6536 2.7607 -5.4417 -0.7511 -2.8122 -5.0673 1.6222 -3.1249 5.1377 0.3784 2.4369 4.3779 2.6651 2.6893 -4.3150 0.0690 3.9607 2.3458 -3.6986 -3.8003 2.3430 -1.7821 7.5918 -1.5638 2.3060 -6.4006 -4.0466 -0.8884 -2.4330 -3.7726 1.4940 -2.7845 3.7963 0.0154 2.0172 3.1320 2.3268 2.3127 -4.0517 -0.4417 2.6285 2.3265 -3.3845 -2.4922 -3.3075 0.2102 4.8398 2.1204 -2.6679 -4.7990 -1.7098 -0.6110 3.2172 1.9659 -1.0460 -3.0088 1.1700 -1.2172 7.1294 -0.6585 1.2681 -6.2897 -0.8635 1.6479 -0.1637 0.5535 1.5089 -0.6683 -1.6833 0.4235 -0.4880 1.2978 0.4330 0.0792 -1.3736 -0.7532 0.3016 0.9363 -0.9246 -0.2673 -0.8215 0.1448 5.3891 1.6782 -0.3789 -5.4794 -3.2487 0.1944 -2.3959 2.8311 0.9508 1.9545 -2.7980 -0.7648 2.2622 2.1038 -2.0093 -2.0792 1.3047 -0.9960 5.8582 0.1962 1.5793 -5.3651 -0.2461 -1.5598 0.1185 -1.9474 -0.1393 4.4554 1.9323 -1.3900 -4.4195
-2.7721 3.1098 -0.6497 -0.1962 3.9411 -0.3508 -0.2053 -0.6245 6.6985 2.2286 0.4118 -6.5540 0.1218 -1.7891 0.3659 -2.2476 0.4850 -1.8416 0.5845 1.9968 1.7398 -2.4338 -1.1627 1.0573 2.0539 -0.0720 -0.4003 0.9483 -1.2830 4.8022 0.5801 -0.6371 -5.3191 3.2378 -2.4453 4.1126 -1.2363 -2.5736 -5.4868 3.8555 -3.6066 5.2559 -0.7883 -3.9245 -6.4925 -6.1814 -0.5979 -3.1494 4.1504 3.9936 3.0208 -5.2924 -1.5683 -2.8714 -5.7962 0.7963 -3.0245 4.1776 2.6610 2.8394 2.9179 4.7304 2.8049 -3.8035 -0.4002 4.5345 4.1478 1.6220 -2.9927 3.0101 -3.6976 6.2969 0.4430 -3.7183 -6.9907 -3.9523 -1.2219 -2.4323 -4.5528 1.1181 -2.6257 2.9760 1.9609 2.4232 1.8053 4.0835 2.4148 -3.7256 -0.5831 3.0964 3.6641 1.2145 -1.8059 -2.7037 -0.5464 5.2949 3.4930 1.2099 -4.2212 -1.3654 -1.0575 3.3454 1.9176 -0.0690 -2.8960 1.8745 -2.9109 6.2873 1.0985 -2.5515 -6.6495 -1.8406 2.2319 -0.0346 -0.4482 2.5546 -0.5264 -2.2239 0.8084 -0.3577 0.5936 1.7776 0.2383 -1.5456 -0.2034 0.4294 0.7021 0.3795 -0.1309 -0.1903 -0.9273 5.5082 1.7651 0.0627 -5.4717 -3.6030 0.0695 -2.2893 1.8419 2.6472 2.1926 -2.5490 -0.8844 2.5174 2.4941 0.3534 -1.7555 1.8823 -2.2081 5.1967 0.3205 -1.8673 -5.8683 -0.2232 -0.6094 0.2161 -1.4272 -0.8782 4.6778 2.4182 0.3996 -4.1787
-2.1084 1.0557 0.2126 0.0392 2.6802 -0.1503 -0.2400 -0.0710 6.7175 0.5063 0.5187 -6.8544 2.2997 -2.6532 -0.1948 -1.2368 -1.2671 -1.3197 2.0460 1.1305 1.3320 0.0365 -2.8640 1.3196 3.2255 -0.3873 -1.3989 -0.9896 0.7515 4.6869 -0.1670 1.3846 -4.8148 -2.8535 2.3615 3.6792 -2.3283 2.4966 -3.7308 -4.1444 2.7761 4.7744 -3.8442 1.9982 -4.4318 -4.8899 -3.4872 -1.6506 4.8658 4.3499 1.6043 -4.9366 -2.1436 -1.6928 -3.6164 -4.1627 -1.4762 5.3192 3.0855 1.5308 3.4374 4.6084 1.6116 1.4782 -3.4051 4.8098 3.4580 -1.7821 -4.8731 -3.9502 2.1497 5.9474 -3.6092 1.1230 -5.4243 -3.7129 -1.3703 -1.5675 -2.4847 -3.4468 -1.3494 4.3808 1.9804 1.4404 2.5684 3.5844 1.5430 1.1880 -3.5818 3.3977 3.6857 -1.5704 -3.5635 1.0000 -2.3342 5.4682 2.4171 -1.0367 -5.5597 -0.1037 -1.5379 3.4668 1.9863 0.1540 -3.4973 -2.8364 1.3445 6.0800 -2.2993 0.7869 -5.6998 -0.8078 0.5293 0.4379 0.1860 1.2906 -0.4083 -0.8191 -0.9413 0.1033 1.6080 0.8879 -0.1009 0.3498 -1.6820 0.5401 2.0064 -0.4104 -0.6108 -0.3733 -0.1845 5.5025 0.6326 0.6066 -5.6366 -2.5350 -1.9934 -1.3758 3.0567 2.2196 1.4204 0.4413 -2.6742 2.7423 2.9087 -0.5750 -2.8428 -2.1808 1.3761 4.9608 -1.5354 1.4385 -4.8780 1.5912 -1.6427 -0.0999 0.1830 -1.3537 4.7678 1.7013 -0.1101 -4.8950
-2.2096 2.8996 -0.6720 0.4178 3.3507 -0.0953 -1.0329 -1.3275 6.8009 2.8705 -0.4917 -6.2724 -0.1432 -2.3880 0.3929 -1.9461 0.2549 -1.9060 0.8141 1.2395 1.9387 -2.6220 -1.4143 0.9130 2.0671 -0.9579 -0.1765 0.3669 -1.7333 5.0005 0.9067 -1.1106 -5.2025 2.9526 -1.8050 4.3898 -1.5009 -1.8477 -6.0556 3.9899 -0.8678 5.4305 -2.1413 -0.9060 -7.3740 -5.7679 -0.1291 -3.8026 4.4141 3.1007 3.3399 -5.1688 1.0749 -3.7759 -5.1271 -1.2723 -3.1774 3.2426 3.7483 3.4729 4.4476 1.7781 2.7434 -4.2447 -0.4765 4.2296 4.5734 0.5000 -2.5341 3.2450 -0.2615 6.3705 -1.2586 0.0518 -7.7058 -3.8782 1.2279 -3.1284 -3.9360 -1.1292 -2.5691 2.0126 3.1273 3.0145 3.3084 1.2027 2.3213 -4.0411 -0.6934 2.8094 3.9482 0.1222 -1.4050 -3.2398 -0.6942 5.0959 3.9611 0.2366 -3.8237 -1.7739 -1.3890 3.3009 2.1230 -0.8482 -2.6739 1.8793 -0.4695 6.3558 -0.0760 0.1248 -6.9955 -1.4718 1.8845 -0.0049 -0.0091 2.0222 -0.3596 -2.0220 0.5395 -0.4160 0.8514 1.0702 0.4317 -1.5620 -0.5775 0.3870 0.7810 -0.3167 0.0158 -0.8418 -1.3963 5.5895 2.2152 -0.6537 -5.2471 -3.2940 0.1748 -2.5282 2.0431 1.9087 2.4451 -2.8472 -1.1148 2.3556 2.6661 -0.5579 -1.4771 1.6032 -1.2578 5.3632 -0.0804 -0.8244 -6.1116 -0.3002 -1.1668 0.2608 -1.9446 -1.1549 4.6155 2.7802 -0.4062 -3.8942
-2.6924 0.8814 0.4380 -0.6130 2.6470 0.7485 -1.1674 -0.9767 6.7047 1.0111 1.7918 -6.5792 1.9781 -2.4375 -0.2385 -1.3895 -0.9088 -1.4959 1.4292 0.8976 1.9479 -0.4177 -3.0153 1.0147 2.8287 0.0502 -0.9347 -1.5973 0.1953 4.7487 0.3953 -0.1615 -5.4940 -2.2930 2.6400 3.9779 -1.2451 -2.1387 -6.1827 -1.7596 3.9303 5.0190 -2.7852 -1.6359 -6.8234 -3.6075 -4.1400 -3.2178 3.7251 4.3729 2.9642 -4.2517 -3.0035 -2.8970 -2.1863 -4.2689 -2.9510 2.5196 4.1900 3.5324 4.2627 3.3680 2.0647 0.7405 -4.0236 4.5041 3.3343 2.9374 -3.2548 -1.0609 3.4133 6.0441 -2.8394 -0.2931 -6.8459 -3.5237 -1.9016 -2.2928 -1.5111 -3.2489 -2.3922 1.7419 3.0047 3.2185 3.5518 2.2596 1.7913 0.5365 -4.0205 3.0669 3.3871 2.1424 -2.1716 0.2443 -3.0273 5.2591 2.5402 2.5432 -4.4038 -0.7553 -1.9905 3.3147 1.9490 0.5033 -3.2347 -0.8937 2.0426 6.0962 -1.7460 0.4124 -6.3824 -1.3858 0.3843 0.6922 -0.3667 1.3731 0.1737 -1.2505 -0.9583 0.0170 1.0520 0.9588 0.4797 -0.0955 -1.7173 0.4555 1.5526 -0.1701 -0.2838 -1.1077 -0.8757 5.4822 1.0547 1.0532 -5.5990 -2.2097 -2.0251 -2.0323 2.2234 2.0878 2.3597 -0.1648 -3.0302 2.4852 2.6593 0.8843 -2.1561 -1.4974 1.5260 5.0708 -0.8430 -0.4431 -6.0138 1.1940 -1.5020 -0.0387 -0.5204 -1.9550 4.6396 1.8657 1.3778 -4.3951
-2.3964 3.3672 -0.3689 0.1453 3.9705 0.4175 -0.7149 -1.1510 6.6814 0.7975 -2.8125 -4.2680 0.0372 -1.8123 0.4076 -1.9154 0.8493 -1.7658 0.6257 1.7264 2.2634 -2.5292 -1.0768 0.9003 2.1456 -0.1510 -0.0080 0.3495 -2.2959 4.9725 1.7109 -1.6041 -6.0179 2.8062 -3.0202 4.2424 1.2377 -1.1835 -8.6030 4.0981 -2.1238 4.9947 -0.4423 -1.2304 -9.0641 -5.6221 0.2515 -3.8374 4.0236 3.7406 3.9263 -5.1931 1.5069 -3.6155 -4.8389 -0.8758 -3.3637 2.8239 4.3485 3.9532 4.1443 2.3966 3.3901 -4.1657 -0.7313 4.3241 3.9738 0.5948 -3.1919 3.5755 -1.1876 5.8050 -1.1919 -1.5122 -7.9848 -3.9463 1.7321 -2.9050 -3.6900 -0.6671 -2.6956 1.6557 3.6714 3.4181 3.0598 1.7627 2.9102 -3.9639 -0.7232 2.8872 3.5868 0.6303 -1.9037 -3.1458 -1.0323 5.1468 3.2720 -0.2523 -4.1419 -1.6449 -1.3115 3.2678 1.8235 -0.9689 -2.3424 2.2006 -1.1036 5.9024 -0.5508 -1.6945 -6.7755 -1.6155 2.3628 0.2653 -0.1532 2.6437 0.0044 -2.0441 1.0132 -0.2605 0.7507 1.6941 0.7498 -1.5231 -0.1222 0.4784 0.8022 0.3498 0.2137 -0.6860 -1.5595 5.5236 1.5038 -1.8961 -4.6812 -3.2346 0.6899 -2.4368 1.7720 2.4385 2.8909 -2.7487 -0.9871 2.3730 2.4581 -0.1714 -1.4641 1.6843 -2.0151 5.1356 0.7230 -1.5392 -6.9676 -0.2135 -0.6003 0.3599 -1.8330 -1.3417 4.6001 2.2160 -0.9865 -3.7422
-3.0878 3.5840 -0.3066 -0.6101 4.7084 -0.0393 0.2685 -1.7634 6.3904 1.2381 -1.1983 -6.4481 0.4388 -0.9785 0.1095 -2.2878 1.1752 -1.7957 0.5696 2.6667 1.7316 -2.1494 -0.7571 0.9077 2.0552 1.0261 -0.7498 1.3869 -1.7914 4.3639 0.1986 -1.9473 -4.5234 3.6136 -2.8273 3.3391 -0.8898 -4.1192 -3.4421 4.0980 -4.3597 4.0135 -0.1699 -5.6302 -3.9277 -6.0309 -0.3245 -3.2413 3.9809 4.8821 3.0723 -5.7116 0.9640 -3.4587 -5.1184 -1.1849 -2.5099 4.1429 3.6003 2.6979 2.6622 5.4887 3.0336 -3.1827 -0.2263 4.5409 3.0290 1.9404 -4.2486 3.2009 -4.7409 4.9391 0.8536 -5.3863 -4.7640 -4.4552 1.4947 -2.9596 -3.9515 -0.6958 -2.0546 2.9997 2.8261 2.2483 1.6039 4.7742 2.6115 -3.2250 -0.2481 3.0903 2.8741 1.9860 -2.9129 -2.0817 -0.6446 5.1900 2.4117 0.8730 -5.0161 -0.9952 -1.1967 3.0988 1.5833 -0.0646 -2.9432 2.1242 -3.9114 5.1847 1.1388 -4.0722 -5.0810 -2.0139 2.7809 0.1627 -0.7092 3.3303 -0.3701 -2.2440 1.3593 -0.2890 0.4788 2.6078 0.2167 -1.4113 0.3676 0.3651 0.6977 1.2716 -0.3017 0.2757 -1.6108 5.1713 1.0562 -1.1258 -5.2362 -3.6165 0.7036 -2.2662 1.7832 3.3976 2.1803 -2.1620 -0.6898 2.3941 2.1059 0.9548 -2.2361 2.2317 -2.8727 4.4143 0.2903 -3.3149 -4.4561 -0.0622 0.1527 0.0592 -0.9356 -1.1425 4.4421 1.7097 -0.0909 -4.3910

>  <OB_ATOM_TYPES> (1qbrB1)
O.3 O.3 O.2 O.2 O.2 C.3 C.3 C.3 C.3 N.am N.am S.2 S.2 C.ar C.ar C.ar C.ar C.ar C.ar C.ar C.ar C.ar C.ar C.ar C.ar C.ar C.ar C.ar C.ar C.ar C.ar C.ar C.ar C.ar C.ar N.ar N.ar C.3 C.3 C.3 C.3 N.am N.am C.2 C.2 C.ar C.ar C.ar C.ar C.ar C.ar C.2 C.ar C.ar

>  <ENSEMBLE_RMSD> (1qbrB1)
0.000 2.919 2.954 2.964 3.037 3.148 3.170 3.221 3.321 3.354 3.395 3.451 3.463 3.463 3.482 3.519 3.567 3.637 3.657 3.662 3.694 3.710 3.726 3.803 3.805 3.843 3.876 3.912 3.951 3.967 3.971 3.981 4.034 4.090 4.112 4.126 4.132 4.135 4.150 4.157 4.175 4.177 4.195 4.201 4.267 4.304 4.449 4.457 4.457 4.731

$$$$
