
 OpenBabel03071213D

 62 70  0  0  0  0  0  0  0  0999 V2000
  -11.7400   18.6040   29.0060 O   0  0  0  0  0
  -10.1230   19.5470   26.9490 O   0  0  0  0  0
  -10.8930   15.7950   36.0290 O   0  0  0  0  0
   -8.3020   17.3780   19.8870 O   0  0  0  0  0
   -8.3190   14.2420   27.9110 O   0  0  0  0  0
  -11.9800   15.8390   28.0650 C   0  0  0  0  0
   -7.7000   18.2600   27.7930 C   0  0  0  0  0
   -9.5340   14.7500   30.1640 C   0  0  0  0  0
   -8.1010   15.6010   25.6770 C   0  0  0  0  0
  -10.8970   13.8210   34.9940 N   0  0  0  0  0
   -6.5410   16.5010   20.9820 N   0  0  0  0  0
  -11.8810   13.6840   37.2790 N   0  0  0  0  0
   -5.9800   16.9260   18.6130 N   0  0  0  0  0
  -13.4310   12.1430   29.7610 C   0  0  0  0  0
   -3.8510   17.9820   25.8970 C   0  0  0  0  0
  -12.5800   12.1150   28.6330 C   0  0  0  0  0
  -13.8410   13.3790   30.3120 C   0  0  0  0  0
   -4.7980   18.9320   25.4510 C   0  0  0  0  0
   -4.1550   17.1360   26.9750 C   0  0  0  0  0
  -12.9550   11.3790   40.0430 C   0  0  0  0  0
   -3.4800   16.5070   15.8610 C   0  0  0  0  0
  -12.6530   10.1780   39.3660 C   0  0  0  0  0
   -2.4370   16.0290   16.6830 C   0  0  0  0  0
   -8.6810   17.4330   32.7440 C   0  0  0  0  0
  -10.8650   16.1340   23.0580 C   0  0  0  0  0
  -12.1320   13.3170   28.0540 C   0  0  0  0  0
  -13.3930   14.5870   29.7340 C   0  0  0  0  0
   -6.0520   19.0350   26.0750 C   0  0  0  0  0
   -5.4100   17.2270   27.6040 C   0  0  0  0  0
   -8.7490   16.7310   31.5250 C   0  0  0  0  0
  -10.2340   15.8720   24.2930 C   0  0  0  0  0
  -12.7390   12.6320   39.4370 C   0  0  0  0  0
   -4.7300   16.8560   16.4100 C   0  0  0  0  0
   -9.3050   16.9050   33.8870 C   0  0  0  0  0
  -10.0710   16.4380   21.9380 C   0  0  0  0  0
  -12.1250   10.1800   38.0620 C   0  0  0  0  0
   -2.6010   15.8790   18.0760 C   0  0  0  0  0
  -10.0550   14.9640   32.5890 C   0  0  0  0  0
   -8.0450   16.2010   23.2840 C   0  0  0  0  0
  -11.4020   11.7710   36.2050 N   0  0  0  0  0
   -4.3320   16.1560   19.9350 N   0  0  0  0  0
  -10.5680   17.9230   28.6760 C   0  0  0  0  0
  -10.2000   18.1730   27.2290 C   0  0  0  0  0
  -10.8640   16.4660   28.9380 C   0  0  0  0  0
   -8.8220   17.6340   26.9400 C   0  0  0  0  0
   -9.6990   15.5730   28.9690 N   0  0  0  0  0
   -8.6770   16.1620   26.8970 N   0  0  0  0  0
  -10.6400   15.1250   35.0420 C   0  0  0  0  0
   -7.8390   16.8320   20.8730 C   0  0  0  0  0
  -12.5320   14.5500   28.6140 C   0  0  0  0  0
   -6.3490   18.1720   27.1500 C   0  0  0  0  0
   -9.4360   15.5020   31.4490 C   0  0  0  0  0
   -8.8260   15.9050   24.4000 C   0  0  0  0  0
  -11.4080   13.1020   36.1550 C   0  0  0  0  0
   -5.6020   16.5760   19.8570 C   0  0  0  0  0
   -8.8910   15.3150   27.9260 C   0  0  0  0  0
  -12.2120   12.6800   38.1360 C   0  0  0  0  0
   -4.9280   16.7160   17.7940 C   0  0  0  0  0
   -9.9910   15.6700   33.8100 C   0  0  0  0  0
   -8.6690   16.4720   22.0580 C   0  0  0  0  0
  -11.8940   11.4130   37.4260 C   0  0  0  0  0
   -3.8330   16.2100   18.6640 C   0  0  0  0  0
  1 42  1  0  0  0
  2 43  1  0  0  0
  3 48  2  0  0  0
  4 49  2  0  0  0
  5 56  2  0  0  0
  6 44  1  0  0  0
  6 50  1  0  0  0
  7 45  1  0  0  0
  7 51  1  0  0  0
  8 46  1  0  0  0
  8 52  1  0  0  0
  9 47  1  0  0  0
  9 53  1  0  0  0
 10 48  1  0  0  0
 10 54  1  0  0  0
 11 49  1  0  0  0
 11 55  1  0  0  0
 12 54  1  0  0  0
 12 57  1  0  0  0
 13 55  1  0  0  0
 13 58  1  0  0  0
 14 16  2  0  0  0
 14 17  1  0  0  0
 15 18  2  0  0  0
 15 19  1  0  0  0
 16 26  1  0  0  0
 17 27  2  0  0  0
 18 28  1  0  0  0
 19 29  2  0  0  0
 20 22  2  0  0  0
 20 32  1  0  0  0
 21 23  1  0  0  0
 21 33  2  0  0  0
 22 36  1  0  0  0
 23 37  2  0  0  0
 24 30  1  0  0  0
 24 34  2  0  0  0
 25 31  2  0  0  0
 25 35  1  0  0  0
 26 50  2  0  0  0
 27 50  1  0  0  0
 28 51  2  0  0  0
 29 51  1  0  0  0
 30 52  2  0  0  0
 31 53  1  0  0  0
 32 57  2  0  0  0
 33 58  1  0  0  0
 34 59  1  0  0  0
 35 60  2  0  0  0
 36 61  2  0  0  0
 37 62  1  0  0  0
 38 52  1  0  0  0
 38 59  2  0  0  0
 39 53  2  0  0  0
 39 60  1  0  0  0
 40 54  2  0  0  0
 40 61  1  0  0  0
 41 55  2  0  0  0
 41 62  1  0  0  0
 42 43  1  0  0  0
 42 44  1  0  0  0
 43 45  1  0  0  0
 44 46  1  0  0  0
 45 47  1  0  0  0
 46 56  1  0  0  0
 47 56  1  0  0  0
 48 59  1  0  0  0
 49 60  1  0  0  0
 57 61  1  0  0  0
 58 62  2  0  0  0
M  END
>  <MOLID> (1qbtB1)
1qbtB1

>  <SMILES_CANONICAL> (1qbtB1)
O=C1N(Cc2cccc(c2)C(=O)Nc2nc3c([nH]2)cccc3)[C@H](Cc2ccccc2)[C@@H]([C@H]([C@H](N1Cc1cccc(c1)C(=O)Nc1nc2c([nH]1)cccc2)Cc1ccccc1)O)O	

>  <FINGERPRINT> (1qbtB1)
0000000000000000000000000001101000000001100000000101100000000000000000000001100000000001000000100000000000000001000011100000000000000000000011000000000011000001000000000000000001000000000000000001000000000000000000000000010000100010000000000011000000000100000000000010000000001001100000000010000000001000000011001100000000001001001100001000000000000100010000000000001110000000000000000000000000000000100110000000001000000000011000000000000000000000000000000000000000000100010000000000100000001100000000000000110000110000000000000100000000001000000000100000000001000000000000000000000011100000001010000100000000000000101000000000001000000001110000000000000000000001000000000101110000110111100001100011000000100111100000000000100011000000100000010111000000000000000111000000000000000001000000000000001111000000000000000000000010000000000010000000000000000000000000001001000000000000010000000000000000000100000000000000000100001010000000000100011000011000000000111110000000001110000100000000000010000000000000000000011110000000

>  <MACCS166> (1qbtB1)
000000000000000000100000110000000000100000101000010001000000000010000001001111100010100001110011101000001100011000001011110010111010101111110110110101111111111010111000

>  <OB_MW> (1qbtB1)
824.343

>  <OB_logP> (1qbtB1)
7.3478

>  <OB_PSA> (1qbtB1)
179.57

>  <OB_MR> (1qbtB1)
245.477

>  <OB_ATOMIC_CHARGES> (1qbtB1)
-0.2185578216 -0.2185578216 -0.2679207181 -0.2679207181 -0.2523282275 0.0488819962 0.0488819962 0.121712404 0.121712404 -0.1393531662 -0.1393531662 -0.2105864416 -0.2105864416 -2.00181e-05 -2.00181e-05 -0.0003218312 -0.0003218312 -0.0003218312 -0.0003218312 0.0016453523 0.0016453523 0.0016453523 0.0016453523 -0.0001220478 -0.0001220478 -0.0042107877 -0.0042107877 -0.0042107877 -0.0042107877 -0.0026076508 -0.0026076508 0.0207318408 0.0207318408 0.0045581965 0.0045581965 0.0207318408 0.0207318408 0.0019657876 0.0019657876 -0.2105864416 -0.2105864416 0.2021005708 0.2021005708 0.1143813542 0.1143813542 -0.258630581 -0.258630581 0.2714654169 0.2714654169 -0.0204383867 -0.0204383867 -0.0021377736 -0.0021377736 0.2435141834 0.2435141834 0.3077274387 0.1018915007 0.1018915007 0.055209382 0.055209382 0.1018915007 0.1018915007

>  <MCT_HBD> (1qbtB1)
6

>  <MCT_HBA> (1qbtB1)
13

>  <ENSEMBLE_TOTAL> (1qbtB1)
50

>  <ENSEMBLE_COORDS> (1qbtB1)
-2.6439 3.5998 -0.2508 -0.0418 3.1111 -0.9359 -1.0929 1.1913 7.3408 3.5937 -0.0764 -4.3282 -1.9901 -2.0450 0.8341 -3.7572 1.0080 -1.0501 0.5600 1.0640 1.0699 -3.6503 -0.2951 2.0201 -0.0435 -1.5063 -0.9519 -0.1666 -0.1773 5.7211 2.3350 0.7352 -6.1069 0.0476 -1.6113 7.6802 2.9921 1.5868 -8.2830 -7.9320 0.1703 -0.5706 4.6132 -0.3239 1.1067 -7.0556 -0.8491 -0.6070 -7.4590 1.5371 -0.7020 4.2975 0.7317 0.3350 3.5853 -0.9757 1.8981 1.8625 -4.6271 8.9782 5.8474 1.8628 -10.6447 2.5752 -4.8720 7.8600 6.8212 1.2063 -9.7710 -4.3152 2.1590 4.8462 -0.7693 -1.8161 -4.6229 -5.6408 -0.5814 -0.7876 -6.1463 1.7875 -0.8571 2.9330 1.2284 0.3058 2.3186 -0.5259 1.8611 -4.4460 1.4279 3.6015 -0.9209 -1.8883 -3.2873 0.9367 -3.5028 9.0383 4.5729 2.0625 -10.2436 -3.2774 1.9138 5.6642 0.3982 -1.1623 -5.1919 2.4384 -4.0171 6.6866 6.4729 0.7849 -8.5367 -2.4113 0.2288 4.1551 1.1329 -0.6493 -2.9432 1.2766 -2.0407 5.7877 4.5636 0.5679 -6.9422 -2.0311 2.3978 0.1942 -0.9275 2.0137 -0.7658 -3.0860 1.3211 0.2757 -0.1428 0.8330 -0.2529 -2.6947 0.1351 1.0184 -0.8198 -0.4481 -0.3366 -1.1457 0.6564 6.2359 2.5301 0.0256 -4.9337 -5.1986 0.6857 -0.8833 1.9770 0.6152 1.0281 -3.5182 0.5171 3.2565 0.0718 -1.2834 -2.4160 0.3832 -1.2650 6.3712 3.2964 0.9376 -7.0755 -1.8424 -0.8555 0.5231 0.8110 -2.7200 7.9570 4.2196 1.6140 -8.9239 -2.2787 0.9166 5.3054 1.2823 -0.5499 -4.3828 1.5852 -2.9845 6.7498 5.1144 1.0156 -8.1207
-3.1891 1.2124 1.1965 -2.4627 3.8224 0.6869 0.1049 0.3493 6.9961 0.8404 -0.6770 -5.1720 2.3406 0.8533 -0.5639 -1.6313 -0.1305 -0.8705 0.3216 4.3800 0.7916 0.9548 -0.7949 1.1176 1.3900 3.1892 -1.6821 -1.3917 -0.7599 5.6170 1.2376 0.5834 -7.0951 -1.5543 -2.2319 7.5445 1.7480 -0.2658 -9.3077 -1.4744 -4.3969 -1.2797 0.9293 4.0394 5.0133 -0.6682 -3.6304 -2.0358 -2.4165 -3.7758 -0.3656 1.7521 3.3648 4.1902 -0.1021 4.8989 4.4621 -3.8694 -4.6161 9.2784 3.3841 -3.0587 -11.1274 -4.9084 -4.4686 8.4317 3.8378 -3.7650 -9.9281 3.1691 -0.2267 4.1612 -0.5388 3.7872 -4.8566 -0.7182 -2.1844 -1.9134 -2.4700 -2.4357 -0.2580 1.5759 3.4545 2.7509 -0.2630 4.9866 3.1306 2.7420 -0.4114 2.7875 -0.0182 3.9764 -3.6289 -2.6330 -3.8727 9.0757 2.7092 -1.8922 -11.0370 2.2587 -0.1930 5.1501 -0.2495 2.5650 -5.5906 -4.8212 -3.5577 7.2969 3.6027 -3.2656 -8.6961 0.4456 -0.4441 3.5615 1.1796 1.8746 -3.7583 -3.3426 -1.9791 6.1234 2.5131 -1.3961 -7.4506 -1.8146 1.5383 1.0487 -1.6797 2.7619 0.1681 -1.0903 0.3437 0.4673 -0.2370 3.1553 0.1195 0.3619 0.3906 0.5327 0.6460 2.4034 -0.7134 -0.1636 -0.2003 5.9314 0.8760 0.3932 -5.7716 -1.5641 -1.6081 -1.0396 0.5784 4.2021 2.2432 1.4322 -0.5037 2.4953 0.8426 2.9609 -3.0440 -2.1011 -1.6379 6.4087 1.8261 -0.3592 -7.9090 1.1880 1.1929 -0.2699 -2.5554 -3.0361 8.0318 2.4722 -1.3712 -9.7185 0.8417 -0.3180 4.8421 0.6096 1.6675 -5.0730 -3.6835 -2.8705 7.1225 2.9003 -2.0123 -8.6184
-3.2514 1.5169 1.3059 -2.4375 4.0942 0.7844 0.5797 0.0421 6.8413 1.3114 1.6615 -7.6343 2.0460 0.9092 -1.0187 -1.9445 0.1469 -0.9182 0.3399 4.5846 0.5671 0.7843 -0.6733 0.8227 1.1294 3.3545 -1.9326 -1.0805 -0.8846 5.5196 1.5723 0.0211 -5.9934 -1.0707 -2.5362 7.3060 2.8343 -2.0462 -6.1854 -2.0892 -4.1111 -1.3740 0.6901 4.8996 4.8224 -1.0755 -3.4249 -1.9315 -3.1372 -3.4052 -0.6578 1.4167 3.9611 4.1887 -0.1722 5.7859 4.0624 -3.1847 -5.1763 8.9232 3.9254 -4.6509 -8.6002 -4.2716 -5.0052 8.1440 3.2561 -4.0602 -9.7602 3.2885 -0.0645 3.6258 -1.2504 3.6217 -4.8340 -1.0234 -1.9803 -1.8031 -3.0827 -2.0673 -0.5270 1.3232 3.8195 2.7449 -0.2606 5.6546 2.7279 2.7246 -0.2280 2.3000 -0.6765 3.8297 -3.6343 -1.9947 -4.3581 8.7308 3.8362 -4.0830 -7.3777 2.4936 -0.1364 4.7079 -0.6474 2.6947 -5.7773 -4.2834 -3.9946 7.0939 2.5181 -2.9366 -9.6387 0.5368 -0.4656 3.3173 1.1278 2.3006 -4.1678 -2.9389 -2.2495 5.9987 1.7663 -1.1811 -8.0356 -1.8812 1.7740 1.0409 -1.7489 3.0138 0.1805 -1.2687 0.5583 0.3783 -0.2847 3.3123 0.0617 0.1865 0.5407 0.3057 0.4510 2.5680 -0.9161 0.1860 -0.3745 5.7549 1.1528 1.2467 -6.4911 -1.9699 -1.3291 -1.1019 0.4939 4.6166 2.0453 1.4000 -0.4086 2.1494 0.5314 3.1052 -3.2705 -1.7016 -1.8722 6.2554 2.0410 -1.0323 -6.7479 0.9608 1.3088 -0.5807 -2.0077 -3.4298 7.7645 3.0455 -2.8878 -7.2648 1.0622 -0.3542 4.5519 0.4939 2.0619 -5.4503 -3.1873 -3.2409 6.9281 2.4177 -2.3562 -8.3267
-2.4057 3.9274 -1.1650 0.0993 3.1287 -1.8844 0.0313 1.0631 6.9791 0.5755 -1.0266 -6.7412 -1.9328 -1.3397 1.1718 -3.7255 1.3162 -1.2700 0.7478 1.6372 0.5544 -3.4479 0.7222 1.9978 -0.0549 -1.3342 -0.7451 0.4517 -0.3116 5.1663 2.4251 -1.0964 -5.3268 0.4631 -1.9222 6.9929 4.5654 0.0682 -5.4153 -7.8937 0.8987 -0.3493 4.5555 -0.2534 1.0987 -7.0714 -0.1507 -0.1720 -7.3769 2.1387 -0.9016 4.4452 0.7260 0.1830 3.4070 -0.6247 1.9055 1.4587 -5.4304 7.8650 6.5543 2.4919 -7.4166 1.9404 -5.7617 6.6500 5.5724 2.6283 -8.4934 -2.9039 3.1615 4.8628 -1.6964 -2.9274 -3.7242 -5.6645 -0.0328 -0.5094 -6.0702 2.2523 -1.2033 3.1700 1.3947 -0.0167 2.2285 -0.0024 1.7257 -3.4235 2.5516 3.6553 -1.4707 -2.5260 -2.4596 0.9093 -4.1033 8.1101 6.3363 1.6610 -6.3736 -1.8921 2.5780 5.5273 -0.7925 -2.5196 -4.7868 1.9232 -4.8001 5.5542 4.4209 1.9243 -8.4750 -1.8380 0.7390 3.9516 0.5017 -1.2897 -3.1482 1.2906 -2.5043 4.9302 3.0628 0.3099 -7.1438 -1.8271 2.8203 -0.4889 -0.8083 2.1540 -1.3895 -2.9306 1.8668 -0.0942 -0.0203 1.1040 -0.6442 -2.5415 0.8548 0.8741 -0.7530 -0.1207 -0.3728 -0.2380 0.6806 5.8425 1.0802 -1.2481 -5.6448 -5.1709 1.1345 -0.9629 2.0946 1.0222 0.7022 -2.8930 1.4036 3.1973 -0.3337 -1.6685 -2.1651 0.7341 -1.5657 5.6714 3.3121 -0.2514 -5.9684 -1.7544 -0.2624 0.5872 0.8932 -3.2219 7.1005 5.1101 0.9083 -6.3744 -1.3275 1.3214 5.0539 0.2707 -1.7425 -4.5057 1.4150 -3.5815 5.7872 4.2125 1.0310 -7.3660
-0.8001 3.9354 -0.7072 1.6556 2.6997 -0.6676 -2.3781 -0.0322 7.4470 3.3932 -1.5638 -4.7922 -1.9892 -1.5378 0.8462 -2.4372 1.6959 -1.5919 1.8874 0.3665 0.9475 -3.3170 0.7315 1.4950 0.3641 -1.7086 -0.5133 -1.8945 -1.6015 5.8164 1.7808 -0.9843 -6.3732 0.2126 -1.7341 7.0281 2.1905 -0.2958 -8.6642 -6.7079 1.7050 -1.9294 2.3843 2.5791 4.5788 -6.0508 0.5316 -1.9129 -5.9667 2.9529 -1.8796 3.1051 2.9151 3.4943 1.4313 1.4851 4.5061 3.0269 -4.0756 7.8436 4.6043 1.4824 -10.8556 2.5260 -5.1510 7.2028 5.5451 1.8220 -9.7866 -2.9418 2.9508 4.5619 -0.9924 -2.9385 -3.7931 -4.6026 0.5140 -1.8198 -4.6243 2.9382 -1.7902 2.9204 2.1887 2.2525 1.2448 0.8248 3.3482 -3.1436 2.5232 3.1927 -0.8960 -2.6528 -2.4815 2.2986 -2.8134 7.8624 3.4633 0.8088 -10.5936 -2.6544 2.0451 5.5117 0.0704 -2.5448 -4.7023 1.2403 -5.0782 6.5202 5.2934 1.4821 -8.5046 -2.7532 0.2356 3.9033 1.2244 -1.5287 -2.8261 -0.6341 -3.5861 5.9632 3.6826 0.2976 -7.0110 -0.6651 2.6794 -0.0571 0.4792 1.9100 -0.6839 -1.9782 1.9316 -0.1619 0.6785 0.6447 0.0943 -2.1071 0.7609 0.6980 -0.2308 -0.4384 -0.1416 -2.2741 -0.3476 6.2639 2.2235 -1.4689 -5.1521 -3.9175 1.6688 -1.7304 2.0002 1.2104 2.1662 -3.0331 1.2223 2.8693 0.2528 -1.9147 -1.9810 -0.7990 -2.3123 6.2621 2.5596 -0.3400 -7.3098 -1.4766 -0.4713 0.4847 1.1167 -2.7485 7.2334 3.2085 0.4572 -9.2233 -2.5461 0.6324 5.1746 1.1119 -1.8267 -4.2424 0.5714 -3.9167 6.5513 4.0639 0.7832 -8.2401
-2.8201 -0.6847 1.8994 -2.2916 2.0014 1.7529 0.4516 -2.6180 6.9932 1.6339 -0.3917 -5.7476 2.4424 -0.3994 -0.5615 -1.4419 -1.5430 -0.5993 0.3957 2.8061 1.5625 1.3546 -2.3859 0.9875 1.2679 2.0532 -1.0931 -1.0905 -1.9672 5.3952 1.1981 1.4689 -7.0867 -3.1733 -0.7650 5.5449 1.6670 1.8335 -9.4356 -3.9349 -5.0207 -0.8558 1.0630 2.3188 5.7650 -4.4829 -3.8014 -1.0046 -2.5182 -5.1477 -0.5639 1.6528 1.4562 4.9183 0.2379 3.3953 5.2480 -4.8381 2.1594 7.2076 3.7630 0.6932 -12.2799 -3.7773 2.5445 7.9456 4.5119 -0.3053 -11.5152 3.5318 -2.5402 4.1162 -1.2689 2.7075 -3.8015 -3.6543 -2.6150 -0.8862 -1.7510 -4.0484 -0.4508 1.4619 1.6012 3.4862 0.0514 3.5227 3.9227 3.1275 -2.4736 2.7231 -0.6608 2.7124 -2.6000 -4.7520 1.0016 6.3262 2.8228 1.4623 -11.6894 2.6064 -2.4907 5.0910 -0.6508 2.0266 -4.9276 -2.5202 1.8115 7.8786 4.2902 -0.4803 -10.1950 0.8249 -2.3613 3.4579 1.2289 1.4868 -3.4926 -1.3808 -0.0844 6.8119 2.8910 0.2700 -8.2662 -1.4984 -0.2563 1.6194 -1.5267 1.1064 0.9638 -0.8055 -1.2856 0.7528 -0.1066 1.5720 0.8620 0.6431 -1.1618 0.6724 0.6862 1.0541 -0.2124 0.1712 -2.3386 5.8306 1.1785 0.7359 -5.9100 -2.3427 -2.7282 -0.6061 0.6720 2.5802 3.0066 1.8251 -2.3662 2.4019 0.6126 2.0292 -2.4279 -1.8462 -0.9449 5.9274 1.9176 1.1693 -8.2242 1.3276 -0.1846 -0.0711 -3.5948 0.3279 6.2657 2.6013 1.2658 -10.2834 1.1957 -2.3783 4.7513 0.5752 1.4888 -4.7881 -2.4507 0.7478 7.0663 3.2963 0.3579 -9.5784
-2.9875 3.6442 0.6856 -0.3605 3.4516 -0.0132 -2.0721 -1.5685 7.4249 1.0144 1.2879 -6.6663 -2.1289 -2.0505 0.2229 -3.9885 1.3625 -0.8858 0.2610 0.9747 1.4171 -3.9439 -0.7504 1.7090 -0.1410 -1.0057 -1.2371 -0.8265 -2.1336 5.5574 2.6709 0.1671 -5.4646 0.9372 -0.9254 6.7178 5.0842 0.3930 -5.7100 -8.0859 0.0911 -0.8980 4.2063 -0.7106 1.4081 -7.1196 -0.7938 -1.2014 -7.7405 1.4759 -0.6280 4.0723 0.6273 1.4511 3.0268 -1.5562 1.4035 4.6636 -0.7358 7.0908 7.7545 1.2897 -8.1391 4.9550 -1.7664 6.2716 6.8518 1.5035 -9.2714 -4.5698 0.8678 5.0907 -1.8338 -1.0916 -4.5969 -5.7321 -0.3683 -1.2328 -6.4533 1.8687 -0.6477 2.7474 1.2277 1.4559 1.8029 -1.0016 1.4385 -4.6513 0.5572 3.6784 -1.6299 -1.2204 -3.2732 3.2806 -0.3475 7.3342 7.2829 0.9057 -6.9325 -3.6918 0.2150 5.8707 -0.7907 -0.5322 -5.4398 3.8933 -2.5177 5.6133 5.5211 1.3174 -9.1424 -2.9278 -1.1214 3.9971 0.5800 -0.2373 -3.4600 1.4537 -2.6876 5.3362 3.7127 0.7176 -7.5330 -2.3514 2.3787 0.7830 -1.1913 2.3123 -0.1883 -3.3743 1.3029 0.5058 -0.3564 1.0711 0.0284 -2.9643 -0.0297 0.9177 -0.9854 -0.1636 -0.4156 -1.8941 -1.5404 6.2096 1.3628 0.5162 -5.7778 -5.4038 0.9002 -0.9244 1.6530 0.4450 1.4103 -3.8411 -0.3737 3.1430 -0.3858 -0.7529 -2.6799 0.5047 -1.9383 5.8631 3.7827 0.4260 -6.2418 -2.0300 -0.8157 0.2434 2.3062 -1.0407 6.7291 5.8638 0.7036 -6.8133 -2.8293 -0.8136 5.3060 0.3759 -0.1429 -4.8929 2.6231 -2.1590 5.8485 5.0381 0.8913 -7.8559
-2.6264 -1.0820 1.4133 -2.9170 1.6318 1.4768 1.3904 -1.8333 6.6343 0.3788 2.9608 -7.0935 2.3902 0.9050 -0.7547 -1.0116 -1.2933 -1.0518 -0.5653 3.1718 1.5925 1.8811 -1.4386 0.5745 0.6005 2.9782 -1.1003 -0.3361 -1.9470 5.0948 1.5525 1.2916 -5.9627 -1.3523 -0.5078 6.7768 1.6139 0.5674 -8.2974 -1.8248 -5.4718 -1.5775 0.3204 2.3873 5.7070 -0.5959 -5.0042 -1.8621 -2.8516 -4.5651 -1.0971 1.2945 2.2244 4.7940 -1.0102 2.7868 5.2863 -4.6440 0.9165 7.8732 3.1678 -1.8945 -10.5875 -5.3907 0.3440 6.9075 4.0718 -2.4674 -9.5893 4.1839 -1.0800 3.5901 -2.1294 3.2422 -3.6747 -0.2966 -3.5930 -1.6896 -2.5765 -3.2578 -0.9431 1.0228 2.4758 3.3897 -1.2673 3.0037 3.9850 3.7027 -1.1023 2.2212 -1.4776 3.2958 -2.4984 -3.2054 0.6919 7.9327 2.3480 -0.8685 -10.2750 3.3304 -1.2905 4.6078 -1.4240 2.8392 -4.8794 -4.7747 -0.5043 5.8947 4.1172 -1.9828 -8.3294 1.4855 -1.5813 3.0680 0.5903 2.5902 -3.5464 -2.6384 -1.4501 5.1229 3.0679 -0.3409 -6.7584 -1.4760 -0.2702 1.2470 -1.8780 1.0764 0.6896 -0.4925 -0.9725 0.3375 -0.6583 1.9454 0.7251 0.8600 -0.4379 0.3346 0.3073 1.7869 -0.3224 0.9853 -1.7715 5.4761 0.5993 2.2932 -6.0885 -1.2420 -2.7538 -1.2280 -0.2125 2.8394 2.9983 2.4006 -1.3258 1.9665 -0.0777 2.9072 -2.4231 -1.4332 -1.3111 5.6404 2.0827 0.5194 -6.9748 1.2559 0.7590 -0.2830 -2.6423 -0.0930 7.0035 2.4180 -0.3575 -8.9340 1.9208 -1.5393 4.3407 -0.1162 2.5300 -4.8144 -3.4496 -0.6990 5.9515 3.2535 -0.8737 -8.0171
-2.0275 0.3177 1.0084 -0.2400 1.8971 -0.3442 0.6491 0.5198 6.9848 -0.2982 -0.2054 -6.8334 2.6157 -3.0974 0.2478 -1.3672 -2.2845 -0.2569 2.4981 1.1719 -0.1006 0.6911 -3.2054 2.1727 2.7879 -1.2582 -1.7671 -0.8092 0.5494 5.1877 1.6308 1.0179 -6.3594 -2.4465 0.3642 6.9751 2.1548 3.2479 -7.1762 -5.2638 -3.8394 0.6370 2.9893 2.5366 3.9268 -5.1485 -2.7548 -0.1499 -4.0749 -4.4533 1.2017 3.3743 1.2844 3.6207 2.4586 3.4048 2.8918 -5.9623 1.2776 7.9006 1.6882 5.5425 -10.0632 -6.2649 1.9162 6.7522 0.9366 4.5903 -10.8825 2.7996 -2.6763 5.3013 1.3881 -3.3571 -4.5408 -3.8361 -2.2032 -0.4357 -2.8593 -3.9370 0.9438 3.2142 0.7839 2.2659 2.3128 2.9438 1.6377 2.3416 -3.1893 4.0232 1.9200 -2.9928 -3.3605 -4.6426 0.6940 8.1019 2.1514 5.1995 -8.8411 2.1464 -1.6612 5.8943 1.0424 -2.3447 -5.5225 -5.2769 2.0433 5.6875 0.6953 3.3366 -10.4446 0.5505 -1.5608 4.0784 1.7844 -0.6438 -3.9546 -2.9727 1.4753 5.0337 1.0020 1.7760 -8.5239 -0.6769 -0.1047 0.9021 -0.0516 0.4927 -0.3390 -0.6306 -1.6168 0.8891 1.4090 0.1607 -0.3448 0.6809 -2.2017 1.1281 1.8066 -1.1672 -0.7021 0.2704 0.0642 5.9086 0.7598 -0.0548 -6.2298 -2.7335 -2.7529 0.1071 2.6615 1.5682 1.3219 1.2666 -2.6442 3.4256 2.1157 -1.5852 -3.0522 -2.0611 0.8027 5.7090 1.5775 1.9780 -7.3473 1.7533 -2.2101 0.2256 -3.7372 0.8105 7.1208 1.8894 3.8593 -8.3907 0.9769 -1.0730 5.2572 1.2394 -1.0439 -5.2402 -4.0624 1.5105 5.8834 1.2137 2.9815 -9.1504
-2.7251 -0.1832 1.2744 -2.8886 2.5504 1.3314 1.8472 -2.5170 6.0538 0.5047 2.1039 -7.2512 2.3114 1.6004 -1.0247 -1.1962 -0.5020 -1.2250 -0.4533 3.9870 1.3047 1.7521 -0.7235 0.2845 0.5604 3.6899 -1.4387 -0.0219 -2.4699 4.6892 1.0510 0.5633 -5.5840 -2.3757 -2.6777 5.1582 2.3412 -1.4930 -5.7134 -1.9548 -4.6905 -1.7519 0.3590 3.2464 5.4445 -0.7729 -4.1842 -2.1471 -2.9594 -3.8179 -1.1711 1.2815 2.8876 4.5334 -0.8751 3.8793 5.0166 -5.0704 -1.5793 7.5281 3.8299 -3.9321 -8.0897 -4.2773 -0.8528 8.3412 3.3622 -3.2562 -9.3010 3.9153 -0.0283 3.3508 -1.8052 4.1479 -4.3217 -0.4945 -2.7688 -1.9754 -2.7037 -2.5066 -1.0168 1.0376 3.1209 3.1201 -1.1038 4.0908 3.7089 3.4228 -0.0122 1.9858 -1.2220 4.2890 -3.1165 -4.5164 -2.2784 6.3753 3.5352 -3.4502 -6.8625 3.2332 -0.6860 4.3052 -1.2384 3.2360 -5.3016 -2.8475 -0.7463 8.0837 2.6160 -2.1340 -9.2260 1.5691 -1.4010 2.6955 0.5457 2.7494 -3.7333 -1.0499 -1.4212 6.5534 1.6125 -0.4811 -7.6508 -1.5475 0.5797 1.0644 -1.9154 1.9366 0.5045 -0.6187 -0.1795 0.1413 -0.6657 2.7601 0.4588 0.7521 0.3069 0.0830 0.2464 2.5305 -0.6192 1.2928 -2.1777 5.0120 0.4983 1.7379 -6.0803 -1.4111 -1.9643 -1.4063 -0.1221 3.6751 2.7204 2.2808 -0.6521 1.6738 -0.0255 3.5271 -2.7964 -1.1148 -2.1788 5.4758 1.6541 -0.4314 -6.3268 1.1739 1.4858 -0.5519 -3.1999 -2.1829 6.1417 2.7370 -2.2561 -6.7993 2.0051 -1.3915 3.9692 -0.1107 2.5610 -5.0121 -2.3467 -1.3929 7.0221 2.3012 -1.6419 -7.9114
-2.5620 3.8287 -1.4144 -0.1523 4.8643 -0.6589 -2.2586 0.4110 6.5944 4.3218 -0.1035 -5.4620 0.3141 -0.7490 0.6456 -1.6094 1.2032 -2.3038 0.3233 3.1851 1.6859 -2.3519 -0.3260 0.5749 2.2701 1.0226 0.1025 -0.8629 -1.0084 5.4097 2.0533 -0.3703 -4.9803 -1.2928 -2.3812 7.3768 0.3161 -1.5683 -6.1854 -4.2805 -1.7785 -3.8401 3.8332 3.4913 4.1272 -3.1203 -2.1614 -3.2776 -4.5907 -0.3657 -3.9714 3.7986 4.1635 2.9627 2.6782 2.7226 4.5556 -0.0370 -5.3908 9.2305 -0.5048 -3.1551 -9.4448 0.9837 -5.6732 8.3958 0.7608 -2.8107 -10.0946 -4.7799 0.8340 3.2663 4.4574 2.7877 -2.3693 -2.1933 -1.1619 -2.7790 -3.7370 0.5608 -3.4986 2.6103 4.1093 2.1303 1.5840 2.6574 3.7763 -4.2028 0.5446 1.9681 3.8299 2.4548 -1.2274 -0.9121 -4.2530 8.9782 -0.7613 -2.7798 -8.1726 -4.0754 0.5896 4.3848 4.2372 2.0030 -3.5706 1.2360 -4.8465 7.2223 1.7069 -2.1032 -9.4414 -2.1808 -0.1875 3.0902 2.7768 0.5434 -2.2911 0.4546 -2.8786 5.9701 2.2835 -1.0358 -7.2598 -1.7277 3.0563 -0.5630 -0.2834 3.4548 -0.7752 -1.9449 1.5935 -0.8715 0.6169 2.8079 0.2451 -1.4095 0.6792 0.1236 0.8687 1.3956 0.0428 -1.9453 -0.1549 5.5500 3.3387 0.1077 -4.7586 -2.5061 0.1455 -2.8450 1.5557 3.3599 2.5034 -2.9462 0.0726 1.8788 2.9342 1.3096 -1.1960 -0.5602 -2.0771 6.2298 1.5897 -0.9759 -6.1316 -0.0544 0.3774 0.2852 -0.6785 -3.4946 7.8979 0.2536 -2.0207 -7.4931 -2.7283 0.0439 4.2990 3.4243 0.9312 -3.5321 0.4268 -3.8016 6.9977 1.4118 -1.6990 -8.0923
-2.5525 3.9086 0.2635 -0.0017 3.3650 -0.5286 -1.4535 -0.2319 7.4876 0.7297 0.2125 -6.9572 -2.2705 -1.8569 0.4963 -3.8520 1.5667 -0.9536 0.4739 1.0413 1.1678 -3.8648 -0.2009 1.8826 -0.2801 -1.2074 -1.1790 -1.0019 -1.7613 5.8153 2.3969 -0.7387 -5.6390 1.2751 -0.9568 6.1109 4.7907 -0.2981 -5.5061 -8.0441 0.7257 -0.6218 4.1775 -1.1179 1.3259 -7.1971 -0.2641 -0.9562 -7.5417 2.0744 -0.4266 3.0186 -1.7845 1.4716 4.1657 0.3220 1.1349 4.8632 -1.9933 5.7783 7.5216 1.7772 -6.9440 4.6236 -3.2585 5.3786 6.6838 2.4457 -7.9409 -4.1341 1.8650 5.0619 -2.1600 -1.5320 -4.4189 -5.7788 0.0126 -1.0961 -6.2267 2.3310 -0.5530 1.7612 -1.0619 1.4386 2.9973 0.9878 1.0734 -4.3262 1.4018 3.7032 -1.8949 -1.5100 -3.1003 3.7626 -1.0856 6.0743 7.0080 0.8434 -6.1134 -3.2932 1.2101 5.8798 -1.1178 -1.1917 -5.3718 3.2580 -3.7489 5.2378 5.3733 2.1445 -8.0600 -2.7393 -0.3820 4.1389 0.3853 -0.7870 -3.5127 0.8875 -3.1215 5.4442 3.5221 0.7719 -7.1030 -2.0327 2.6073 0.4929 -0.9474 2.3044 -0.5191 -3.1673 1.6157 0.4040 -0.2229 1.0206 -0.1857 -2.8658 0.3092 0.9629 -0.9910 -0.1901 -0.4325 -1.6276 -0.6458 6.3434 1.0878 -0.3910 -5.9502 -5.3042 1.2511 -0.8672 1.7424 0.2624 1.1989 -3.6389 0.3384 3.2489 -0.5790 -1.1033 -2.6300 0.3630 -1.9624 5.7920 3.5295 -0.0858 -6.0911 -2.0521 -0.6458 0.3534 2.5081 -1.5389 5.9442 5.6128 0.5252 -6.2603 -2.5662 0.0386 5.4079 0.1097 -0.8509 -4.9357 2.2510 -2.9100 5.5193 4.8466 1.1354 -7.1792
-2.4161 -0.0109 1.7767 -2.6041 2.7301 1.6171 0.9512 -3.0173 6.1770 2.1259 2.0342 -6.2340 2.5513 1.6057 -0.7711 -0.9254 -0.5228 -0.6972 -0.2255 4.2176 1.3142 2.0591 -0.5744 0.7891 0.7195 3.5975 -1.3784 -0.6680 -2.4980 4.6021 0.3347 0.5746 -6.5617 -3.0750 -2.4789 4.6971 0.1335 -1.4864 -7.8141 0.5485 -4.3760 -1.8646 0.7493 4.0922 5.4856 1.0795 -3.2709 -2.4174 -0.5292 -4.2572 -0.8983 -0.3310 4.7793 5.0738 1.5684 3.3806 4.5206 -5.9885 -1.3944 6.8003 2.0581 -4.3221 -9.2351 -5.2656 -0.8903 7.8208 3.3763 -3.7913 -8.8846 3.6073 -0.3313 4.2670 -1.7429 3.5614 -4.2190 0.5753 -1.9619 -2.0462 -0.9917 -3.0435 -0.5465 -0.6758 4.8095 3.6650 1.2531 3.4134 3.2132 3.3935 -0.1463 2.8427 -1.1957 3.7917 -3.0104 -5.3308 -1.9902 5.6437 0.9321 -3.6291 -8.9602 2.7193 -1.0278 4.9992 -1.0068 2.8071 -5.2204 -3.8095 -0.9264 7.7889 3.5045 -2.5927 -8.2763 1.3904 -1.4945 3.0288 0.7829 2.5251 -3.6077 -1.8675 -1.6013 6.4449 2.2287 -0.6883 -7.2838 -1.2546 0.7516 1.4898 -1.6493 2.0511 0.8199 -0.3262 -0.0703 0.6228 -0.4034 2.8700 0.6689 1.0408 0.4234 0.5175 0.4753 2.5406 -0.4128 0.6051 -2.4461 5.1471 0.9959 1.6375 -5.9675 -0.4051 -1.8481 -1.1312 0.0747 4.1430 2.7690 2.3090 -0.6789 2.2513 0.1114 3.2411 -2.6885 -1.8362 -2.1887 5.2647 0.9193 -0.4983 -7.2005 1.4302 1.5299 -0.2547 -3.9912 -2.0257 5.6174 1.0864 -2.3490 -8.3253 1.5533 -1.6165 4.3587 0.1882 2.2737 -4.9057 -3.2132 -1.4763 6.7221 2.2959 -1.8598 -8.0040
-2.4248 -1.1244 1.3839 -2.9675 1.5646 1.5332 1.5583 -1.4693 6.5197 -0.5261 2.0986 -7.0287 2.3310 1.4120 -0.7949 -0.8367 -1.1262 -1.1157 -0.7441 3.3126 1.5637 2.0791 -0.9955 0.4720 0.3291 3.2507 -1.1814 -0.0416 -2.0227 4.9424 0.2773 0.4254 -5.6205 -1.3430 -0.4231 6.2338 2.0464 -1.2208 -5.9247 -1.0576 -5.2991 -2.0853 0.6822 2.4988 5.5159 -2.1897 -4.5760 -2.0153 0.2191 -4.6746 -1.7886 1.5508 2.4258 4.4915 -0.6984 2.8737 5.2709 -4.8617 0.5685 7.0661 4.5019 -2.5313 -8.3899 -5.4702 -0.3619 6.3032 4.0872 -1.6539 -9.4857 4.3400 -0.5486 3.5055 -2.4337 3.8150 -3.6586 -2.1324 -3.1710 -1.6502 0.2715 -3.3737 -1.4500 1.1015 2.6973 3.1370 -1.1187 3.1113 4.0167 3.8603 -0.5485 2.1357 -1.6879 3.8911 -2.5408 -3.4081 0.6488 7.1233 3.8834 -2.4897 -7.1894 3.5133 -0.8914 4.5092 -1.9877 2.9968 -4.7735 -4.6880 -1.3062 5.5148 3.0690 -0.7818 -9.3290 1.6938 -1.2528 2.9546 0.0067 2.4476 -3.5069 -2.3981 -1.9941 4.9318 1.4200 0.1204 -7.6895 -1.3680 -0.1932 1.2112 -1.9217 1.1143 0.6890 -0.3365 -0.7843 0.2755 -0.8095 2.1167 0.6531 0.9526 -0.1089 0.2605 0.1522 2.0369 -0.4032 1.2055 -1.5748 5.3474 -0.3475 1.6320 -5.9079 -0.9528 -2.5919 -1.3573 -0.1903 2.9952 2.9051 2.5828 -0.8748 1.8680 -0.4393 3.1505 -2.4503 -1.2505 -1.4959 5.3490 1.2268 -0.1886 -6.4143 1.2144 1.1300 -0.3429 -2.6915 -0.2207 6.3977 2.7961 -1.5603 -7.0401 2.1314 -1.2530 4.2268 -0.8196 2.3328 -4.6930 -3.3512 -1.2224 5.5688 2.4110 -0.7622 -8.0494
-2.8831 -0.8948 1.5175 -2.9436 1.8282 1.8642 1.5523 -1.9811 6.3803 -0.3359 2.4395 -6.9852 2.0405 0.9086 -0.9689 -1.4951 -1.0014 -1.0714 -0.4778 3.1940 1.7918 1.5106 -1.4506 0.3143 0.3742 3.0985 -1.0570 -0.2925 -2.1648 4.9972 0.2478 0.5750 -5.7174 -2.6482 -1.7772 5.3518 1.8853 -1.1846 -6.0748 -0.6588 -4.7211 -3.0383 1.1924 2.0779 5.5714 -1.7726 -4.6151 -2.2914 0.2529 -3.5965 -3.1380 -0.0659 2.5487 5.5175 1.9519 1.9037 4.3471 -5.0905 0.4863 7.0881 4.4045 -2.4778 -8.4820 -4.1753 1.2890 7.6677 4.1845 -1.4406 -9.4918 4.1033 -1.4274 3.0996 -2.3382 3.8903 -3.5286 -2.0693 -3.3740 -1.5945 -0.0271 -2.4441 -2.5049 -0.6657 2.8784 4.2383 1.4044 2.2231 3.1610 3.4945 -1.3233 1.7872 -1.6075 3.8712 -2.3985 -4.6778 -0.6349 6.2518 3.6916 -2.4980 -7.3345 3.3389 -1.6628 4.1802 -1.8899 3.1520 -4.6970 -2.7516 1.0435 7.4845 3.2568 -0.4772 -9.3074 1.3368 -1.7058 2.8203 0.0746 2.4722 -3.4446 -1.1124 -0.4180 6.3834 1.5621 0.4133 -7.7022 -1.6934 -0.1444 1.3273 -2.0505 1.2670 0.9162 -0.8387 -0.8350 0.2884 -0.7896 2.0735 0.8367 0.5400 -0.3796 0.2175 0.0701 1.8978 -0.2979 1.0556 -1.9799 5.2565 -0.2548 1.8538 -5.9101 -1.2217 -2.3320 -1.6821 0.0399 2.7237 3.1033 2.1618 -1.4459 1.6513 -0.3783 3.0958 -2.3410 -1.3147 -1.4471 5.5835 1.2158 -0.0243 -6.4985 0.9520 0.8151 -0.3887 -3.3665 -0.8536 6.0768 2.7081 -1.4646 -7.1535 1.8957 -1.7982 4.0408 -0.7314 2.4691 -4.6517 -2.3809 0.0050 6.7221 2.5003 -0.5182 -8.0835
-2.7926 0.7793 1.9662 -0.6140 2.0363 0.8415 0.3353 -1.7323 7.1354 0.0344 2.5781 -6.4632 0.2153 -3.5241 -0.5238 -3.2086 -1.3242 -0.0254 1.6778 0.4025 0.3342 -1.4420 -3.6076 1.6354 0.8912 -1.3037 -1.9532 -1.3654 -0.8320 5.8475 2.0629 1.4444 -6.2527 -0.0712 1.1692 6.3344 4.2290 2.1652 -7.0949 -6.0147 -4.5508 0.2861 3.0329 0.5086 4.3961 -4.9818 -4.6576 -0.5689 -6.1940 -3.3338 1.0581 2.8948 1.6562 3.7087 2.7295 -0.7598 3.7569 -0.2823 4.9110 6.3903 5.8698 4.1080 -9.8070 -1.5499 5.0022 5.9397 4.6307 4.4514 -10.5065 0.9088 -4.8371 4.3620 -1.7710 -0.7659 -4.5652 -4.0359 -3.5644 -0.7019 -5.3139 -2.3229 0.9408 2.4134 1.6243 2.3407 2.2752 -0.7888 2.4903 0.2110 -4.7310 3.0944 -1.1486 -1.2046 -3.4564 0.3516 3.6116 6.5700 5.8540 3.3471 -8.6905 0.7140 -3.9119 5.3183 -1.1016 0.1715 -5.4486 -2.3160 3.8033 5.6222 3.4364 4.0071 -10.0615 -0.8316 -2.7005 3.9045 0.7810 0.1897 -3.9138 -2.2304 1.3439 5.5693 2.3129 2.7031 -8.2569 -1.6844 0.0028 1.5354 -0.9576 0.7277 0.4224 -2.1832 -1.3561 1.0949 0.2696 -0.0529 0.0591 -1.1598 -2.3758 0.9277 0.1067 -1.2353 -0.7345 -0.3564 -1.7426 6.1205 0.7109 1.6549 -6.0193 -4.1764 -2.4532 0.0446 2.0715 0.4564 1.7660 -0.6191 -3.6972 2.8692 0.1696 -0.6961 -3.1051 -1.2382 0.5412 5.9025 2.8281 2.1033 -7.1929 -0.2510 -2.4461 -0.1354 -0.3541 2.5113 6.2749 4.5742 2.8787 -8.2315 -0.1895 -2.7952 5.0822 0.1280 0.6201 -5.1378 -1.7248 2.6116 5.7878 3.4396 3.1817 -8.8832
0.5686 3.1117 -1.8630 3.0237 2.2834 -0.9852 -1.8227 1.3423 6.7158 1.1778 -2.9195 -5.5572 -0.5690 -1.7963 1.0312 -0.7011 0.5234 -2.2778 3.1225 0.6249 1.2807 -2.1628 0.3783 0.7117 2.0777 -1.9823 0.2909 -0.8002 -0.4025 5.5939 1.4977 -0.7366 -4.7882 -2.0370 -1.6119 7.3111 0.5676 1.2947 -5.7464 -4.3318 1.4705 -4.3521 2.4361 3.8160 4.0584 -4.2554 0.3294 -3.6438 -3.1896 2.3649 -4.4113 1.5969 2.7650 4.0597 3.5527 3.8514 3.1313 -2.3051 -4.9586 8.9833 -0.5131 2.8452 -8.9458 -1.3286 -5.5637 8.2776 -0.1544 1.7023 -9.7871 -2.7922 3.2545 3.1240 3.7949 -4.0419 -2.3341 -3.0336 -0.0037 -2.9338 -2.0629 2.0634 -3.7414 1.8059 1.6675 3.1322 3.7418 2.8395 2.2661 -2.6885 2.4829 1.9017 3.4102 -3.5506 -1.1405 -2.6475 -3.5642 8.7347 -0.3040 2.8241 -7.6114 -2.4199 2.7102 4.2948 3.2136 -3.5196 -3.5611 -0.5926 -4.8368 7.2505 0.4031 0.5950 -9.2536 -1.8481 0.6205 3.2113 1.8197 -2.0758 -2.2052 -0.3743 -2.6608 6.1220 1.1329 -0.4668 -7.1201 0.6349 2.1367 -0.8333 1.9374 1.3734 -0.9486 -0.5702 1.2250 -0.9375 2.0361 0.4796 0.2499 -0.8075 0.3442 0.2001 1.3059 -0.7522 0.2164 -1.5344 0.7692 5.6673 1.6072 -2.1197 -4.7323 -1.9862 0.8401 -2.9574 2.8260 1.7101 2.2552 -2.2183 1.2231 1.9366 2.4007 -2.5042 -1.0704 -1.0561 -1.5493 6.3209 1.0743 -0.0088 -5.8784 -0.0560 -0.7997 0.5073 -1.9699 -2.8981 7.7892 0.2953 1.6399 -7.0593 -1.9172 1.3436 4.3461 2.2705 -2.5631 -3.4898 -0.9135 -3.5541 7.0281 0.6316 0.5953 -7.8338
-2.2701 3.3538 0.1953 0.1842 2.4413 -0.5650 -1.7428 -0.4890 7.3713 3.2178 -1.2759 -4.4825 -2.8340 -2.3963 0.4016 -3.8868 1.2246 -1.0368 0.2980 0.0653 1.1327 -4.1746 -0.5361 1.7928 -0.7431 -2.0432 -1.2331 -0.8011 -1.5274 5.5278 2.2510 0.2093 -5.9947 1.1863 -0.4997 6.4838 3.3552 1.6914 -7.5660 -8.1647 1.1218 -0.7350 3.9587 -2.1665 1.0438 -7.4891 -0.0272 -0.9146 -7.4487 2.3851 -0.7013 3.9035 -0.9914 0.3913 2.8030 -2.6376 1.7847 4.9171 -0.8290 6.6575 6.5153 3.5276 -8.2280 5.0091 -1.9508 5.9151 7.1760 3.1295 -6.9840 -4.4912 1.5448 4.9558 -1.4777 -1.5825 -4.8975 -6.0439 -0.0036 -1.0494 -6.1077 2.4063 -0.8147 2.6845 -0.2006 0.4197 1.6728 -1.9090 1.8065 -4.6953 1.0439 3.6119 -1.6669 -1.8097 -3.5834 3.6202 -0.2261 6.9356 5.2558 3.1279 -8.5077 -3.5500 0.9934 5.7403 -0.1558 -1.2334 -5.3968 3.8129 -2.5918 5.3831 6.5429 2.3542 -6.0777 -2.9582 -0.6021 4.0141 0.6664 -1.3533 -3.1224 1.3603 -2.4282 5.2475 4.4277 1.1092 -5.6114 -1.9497 1.9911 0.4322 -0.9073 1.5321 -0.5645 -3.2143 1.1723 0.3275 -0.3859 0.1580 -0.2207 -3.1076 -0.1677 0.8820 -1.3079 -0.9323 -0.4919 -1.7306 -0.7216 6.1646 2.2332 -0.7592 -5.0034 -5.3725 1.1595 -0.9580 1.5993 -0.6556 1.0741 -3.9407 0.0323 3.1459 -0.5508 -1.6831 -2.6610 0.5616 -1.5049 5.7468 3.3383 0.9778 -6.3564 -2.4382 -1.2297 0.2711 2.5224 -0.8150 6.4415 4.5925 2.3107 -7.5285 -2.7427 -0.1172 5.2531 0.8656 -1.0824 -4.5326 2.6226 -2.0359 5.6512 5.1955 1.9514 -6.3833
-2.3485 0.7099 0.1261 -1.9667 3.3901 -0.3562 -0.6411 0.4839 6.7108 1.9708 1.4667 -7.1614 3.4328 1.3294 -0.0718 -0.0643 -0.3683 -1.3463 0.5220 4.5029 0.4181 1.9412 -0.5030 1.3058 2.4484 3.4405 -1.5264 -1.5682 -0.6920 4.9438 1.1195 0.1641 -5.4185 -2.0612 -2.2855 6.7132 0.8981 -2.2583 -5.3735 -0.3313 -4.6476 -1.3125 -0.5327 4.7330 4.5596 0.8737 -4.0657 -1.4483 -1.5246 -3.8270 -1.2069 0.6203 4.1265 4.2243 -1.3763 5.3094 3.5287 -4.4549 -5.0016 7.6855 0.3942 -5.2337 -7.5449 -5.2359 -4.9213 6.5894 0.3013 -4.4825 -8.7979 3.0935 0.5626 4.7756 1.0337 4.8355 -4.7098 0.9825 -2.6179 -1.4645 -1.4246 -2.4854 -1.2201 1.0094 4.0234 2.8278 -1.0173 5.2156 2.2372 3.1026 0.2647 3.3560 1.4968 4.7463 -3.4491 -3.3083 -4.1178 7.8491 0.5693 -4.6032 -6.3626 1.9536 0.4500 5.4796 1.0079 3.6563 -5.5590 -4.9553 -3.9442 5.5447 0.3759 -3.1350 -8.8061 0.7275 -0.1968 3.4931 2.0270 2.3999 -3.7483 -3.4162 -2.1503 4.8620 0.7054 -1.1248 -7.3711 -1.0625 1.2748 0.3298 -0.8911 2.4906 -0.5566 -0.0119 0.2221 0.0510 0.4128 3.1319 -0.1905 1.3381 0.5355 0.4961 1.6057 2.5574 -0.7358 -0.5449 -0.0235 5.5963 1.5458 1.3423 -6.0172 -0.1177 -1.8555 -1.3246 0.2053 4.5212 1.8699 1.9631 -0.0886 2.7346 1.9799 3.4724 -2.9386 -2.3492 -1.6909 5.4861 0.9166 -1.0354 -6.0661 2.2034 1.4606 -0.1096 -3.0519 -3.2209 6.8869 0.6435 -3.1674 -6.3878 0.7216 0.0460 4.8173 1.4754 2.4867 -5.0864 -3.9038 -3.1288 5.7066 0.5420 -2.4791 -7.5369
-4.2510 2.6334 0.6062 -2.1029 4.1235 1.3826 -2.0656 -4.0015 5.6390 2.8265 2.5051 -6.1457 0.2680 -0.8203 -0.4460 -3.0028 1.2289 -1.6464 -0.4649 1.9104 2.4438 -2.2760 -1.5195 0.1036 1.3576 1.6630 -0.3323 -0.2992 -2.8882 4.6397 1.6990 0.5813 -5.4819 -0.1988 -1.7210 6.7714 1.9007 -1.7328 -6.2204 -5.0096 -1.7285 -4.0208 3.3828 2.6066 4.2125 -3.6664 -1.7368 -3.9524 -5.7628 -0.6896 -3.3404 2.3923 3.4879 4.4412 3.1306 1.4283 3.4035 2.1611 0.0546 9.0818 3.7575 -3.9718 -8.5378 3.2761 -0.1466 8.3508 4.5270 -2.9059 -9.1813 -4.7519 -2.3187 2.8827 1.3180 4.5157 -2.7692 -2.9747 -0.7214 -3.1794 -5.1223 0.2463 -2.6153 1.0794 3.2779 3.8523 1.9084 1.2194 2.8839 -4.2014 -1.8905 1.6124 1.2448 3.8192 -1.6211 0.8742 -0.4598 8.6323 2.8528 -3.6949 -7.5733 -3.9327 -2.7439 3.8595 1.5845 3.8243 -4.0179 3.2205 -0.8861 7.0957 4.3528 -1.6144 -8.8284 -1.9866 -2.4180 2.4500 1.7159 1.7401 -2.7847 1.7148 -2.0655 5.5467 3.1286 -0.0932 -7.2723 -3.0056 1.9776 0.7919 -1.8759 2.9649 0.5944 -2.9128 0.8254 -0.1812 -0.5508 2.3664 0.9950 -1.8538 -0.1295 0.1103 -0.0194 1.4063 0.0462 -1.6178 -3.3001 4.7351 2.1702 1.8782 -5.3183 -3.6725 0.2075 -2.4994 0.8537 2.2039 3.0728 -2.8704 -1.9010 1.4133 1.4121 2.3740 -1.6364 0.4112 -2.2460 5.6329 2.2461 -0.3733 -6.3217 -0.4919 0.1005 -0.1166 0.8257 -1.1406 7.4788 2.6687 -2.3130 -7.2179 -2.4934 -2.7902 3.6426 1.7650 2.4897 -4.0281 2.0339 -1.3625 6.6927 3.3733 -1.3354 -7.8110
-1.8817 3.0766 -1.5403 0.5551 3.8682 -0.6436 -3.4514 0.2884 6.3610 4.0747 -0.8533 -5.3473 0.3096 -1.7029 0.8776 -1.1406 0.3033 -2.3112 0.6226 2.2376 1.8014 -2.2764 -1.0372 0.5155 2.4829 -0.1672 0.4409 -1.4001 -0.3731 5.5224 1.9015 -0.2260 -4.7787 -1.7013 -2.0308 7.2805 -0.1085 -0.5513 -6.1109 -4.1810 0.3146 -5.3434 3.9682 2.5420 4.4680 -3.1938 1.2265 -5.3974 -4.2349 -0.6264 -4.2389 3.5585 3.6414 3.8096 3.2650 1.2850 4.2874 0.1827 -4.4088 9.4843 -1.3566 -0.8584 -9.5980 1.4102 -4.1286 9.0019 -0.0480 -0.6893 -10.2320 -5.1062 0.5173 2.5295 5.3389 0.9444 -1.7097 -2.1804 1.2608 -4.3562 -3.2930 -0.5983 -3.2784 2.4292 3.5655 2.8975 2.2052 1.2202 3.4625 -4.3217 0.0109 1.4211 4.5786 0.6805 -0.6313 -0.9956 -3.7334 8.9565 -1.4927 -0.8099 -8.2548 -4.5939 0.5119 3.7715 4.8542 0.6105 -3.0381 1.5872 -3.1420 7.9433 1.0582 -0.4634 -9.4923 -2.5395 -0.5037 2.9835 2.8690 -0.3378 -2.0188 0.3997 -1.5600 6.4782 1.9152 -0.2315 -7.1604 -1.1984 2.2323 -0.6275 0.2915 2.4750 -0.7196 -1.5474 0.7944 -0.9298 1.0242 1.7893 0.4066 -1.2027 -0.1406 0.1314 1.1361 0.3495 0.2698 -2.7360 -0.0262 5.4121 3.2597 -0.4032 -4.5477 -2.2289 0.3927 -3.3275 1.7939 2.3942 2.7079 -3.0757 -0.4525 1.6286 3.2826 0.0415 -0.7957 -0.8923 -1.3042 6.4068 1.2750 -0.3345 -6.0040 0.0933 -0.5614 0.4471 -0.8304 -2.8288 7.9814 -0.3048 -0.5679 -7.4815 -3.2578 -0.0161 4.0151 3.6593 0.0083 -3.1836 0.4982 -2.5246 7.4632 0.8914 -0.3894 -8.0653
-4.0910 3.6975 0.5315 -1.7021 4.9636 0.8954 -2.3112 -1.6104 6.6644 2.7593 1.5333 -6.4142 -0.1753 -0.5169 -0.1108 -3.2402 1.7558 -1.4924 -0.2851 2.7585 2.2334 -2.7439 -0.7295 0.6625 1.2311 1.7678 -0.5598 -0.5748 -0.9356 5.2930 1.7062 -0.2824 -5.4115 0.3942 -2.9272 6.3041 2.0430 -2.6811 -5.6707 -6.0261 -1.0719 -3.1207 3.6692 3.6357 3.6425 -4.7158 -1.3744 -3.0999 -6.4777 0.2235 -2.6435 2.8194 4.6542 3.4177 3.2318 2.2672 3.4322 3.6466 -4.7156 6.8350 4.0495 -5.2328 -7.4840 4.4199 -3.8312 6.1735 4.7805 -4.2757 -8.3157 -5.1163 -0.9479 3.6287 1.0773 4.0753 -3.5237 -3.7593 -0.4143 -2.5799 -5.5927 1.1089 -2.1490 1.4712 4.3854 2.9462 1.9838 2.0174 2.9971 -4.6147 -0.8151 2.2750 1.0248 3.6179 -2.2604 2.2090 -4.5068 6.9490 3.1123 -4.8187 -6.6032 -4.2555 -1.0641 4.6541 1.3983 3.1656 -4.6075 3.8363 -2.6457 5.5577 4.5362 -2.9510 -8.2274 -2.3581 -0.9876 3.1476 1.6049 1.3745 -2.9825 1.7289 -1.4306 5.1827 3.2100 -1.2185 -7.0133 -2.9347 2.9064 0.7628 -1.7048 3.6667 0.3177 -3.0808 1.6027 0.0131 -0.4431 2.9564 0.7355 -2.1392 0.5647 0.4047 -0.1268 1.7787 -0.0469 -1.8942 -1.2559 5.5640 2.1136 1.0430 -5.4919 -4.1813 0.7630 -2.0819 1.0767 3.1192 2.7151 -3.2890 -0.7998 2.0441 1.2557 2.2075 -1.9830 0.5093 -1.7423 5.5766 2.3234 -1.3520 -6.0352 -0.7791 0.5488 0.0719 1.6748 -3.4169 6.3806 2.8545 -3.4053 -6.5296 -2.8194 -1.0797 4.4101 1.6453 1.8672 -4.3499 2.5129 -2.4612 5.6657 3.5224 -2.5282 -7.2969
-2.4168 3.9775 0.0255 0.1625 4.1377 0.9640 -3.0751 -2.9431 5.9640 1.0576 0.7019 -5.2964 -0.5536 -1.5259 -0.0119 -2.1403 1.7324 -1.7919 1.2980 1.8212 2.1201 -3.0752 -0.6034 0.4235 1.7328 -0.0099 -0.1136 -1.1229 -2.5243 4.7819 3.2852 0.5287 -5.9617 -0.2902 -1.9119 6.9864 2.0641 -0.9232 -7.5044 -5.4129 -0.0246 -3.9287 -0.6008 2.4235 5.9157 -4.2570 -0.7031 -3.8167 -5.5338 1.3036 -3.3536 0.2407 3.3568 5.4368 -0.8833 1.2341 5.1335 2.8450 -1.7753 9.0415 2.4067 -2.8667 -10.6387 3.6641 -2.3080 8.1123 3.7757 -2.4357 -10.9248 -5.0259 0.0060 3.6399 4.0636 2.1889 -2.0706 -3.1358 -0.1108 -3.1112 -4.4959 1.8522 -2.6961 0.8698 3.1682 4.1430 -0.2983 1.0573 3.9349 -4.5948 0.0827 2.2567 3.4365 1.5877 -1.0425 1.4256 -1.5932 8.7658 1.7427 -2.4010 -9.5596 -4.3430 -0.7500 4.5175 3.6679 1.8896 -3.4364 3.1475 -2.7193 6.8129 4.4130 -1.5565 -10.1216 -2.8132 -1.4754 2.7813 2.0844 0.2700 -2.5615 1.1205 -2.8347 5.4246 4.2110 -0.2482 -7.9965 -1.7719 2.7988 0.4853 -0.2729 2.9509 0.3244 -2.3101 1.6101 -0.2859 0.3653 1.7433 0.9417 -1.9519 0.2965 0.2389 0.4164 0.5576 0.1360 -2.4789 -2.3984 5.0391 2.2593 0.7197 -5.0490 -3.2563 1.1059 -2.5494 0.6016 2.0721 3.4103 -3.5121 -0.6031 1.8470 2.3733 0.6270 -1.2970 -0.1054 -2.4416 5.7103 3.2050 -0.1916 -7.1351 -0.6875 -0.3014 0.0999 0.9524 -1.9721 7.5704 2.4318 -1.4586 -8.7223 -3.1826 -1.5092 4.0766 2.7543 0.9289 -3.6702 1.8390 -2.5568 6.5710 3.6855 -1.0536 -8.9854
-4.0585 3.4025 0.4565 -1.7750 4.4713 1.5051 -2.3253 -3.6116 5.7522 3.4977 -0.7306 -4.0612 -0.2323 -0.9191 0.1031 -2.8081 1.7033 -1.5764 -0.7406 2.0409 2.7740 -2.9189 -1.0654 0.2734 1.3012 1.3200 0.2320 -0.5978 -2.6877 4.5155 2.2038 0.3269 -5.6908 -0.0245 -1.7353 6.6789 1.9957 -0.0786 -8.0785 -5.0568 -0.8123 -4.2206 2.9170 1.9286 5.0091 -3.7605 -1.0891 -3.9918 -5.6662 0.3582 -3.6141 2.5896 0.8868 4.2251 2.0336 3.0779 5.0873 2.8796 -0.5196 8.7145 3.2504 -2.1903 -10.8673 3.8384 -0.8278 7.8183 4.2551 -2.8967 -10.0712 -5.1762 -1.8212 3.2426 2.0136 3.4793 -2.7520 -2.9806 -0.2320 -3.1176 -4.9462 1.1485 -2.7969 1.3313 0.8868 3.5059 0.9000 3.1101 4.3624 -4.7214 -1.3777 1.9392 1.6688 3.0989 -1.5086 1.4794 -0.8113 8.4366 2.4745 -1.2299 -10.3189 -4.2928 -2.2988 4.1363 2.3590 2.4800 -3.7489 3.4984 -1.4830 6.5617 4.4375 -2.6050 -8.7657 -2.4688 -2.0202 2.5669 1.8729 0.7584 -2.1110 1.6283 -2.2968 5.1850 3.6012 -1.2078 -6.8733 -3.0023 2.5257 0.8218 -1.6848 3.2688 0.7547 -3.0195 1.3397 -0.1139 -0.5575 2.4398 1.3176 -2.2238 0.2068 0.3277 -0.1291 1.3482 0.4639 -1.9281 -2.9659 4.7854 2.7381 0.1645 -4.4194 -3.5580 0.8220 -2.5117 0.5420 1.9762 3.5256 -3.4160 -1.4459 1.6219 1.5928 1.6858 -1.1781 0.3345 -2.2592 5.4380 2.6193 -0.3166 -6.8415 -0.8272 0.1508 0.2907 1.1677 -1.4001 7.2738 2.6895 -0.9222 -8.9306 -2.8804 -2.3930 3.7940 2.2413 1.1721 -3.4543 2.2091 -1.7613 6.3193 3.6158 -1.5665 -8.2018
-2.5404 3.7484 -0.8261 -0.1731 4.4262 0.3394 -3.7255 -2.4905 5.8065 4.4352 0.2909 -5.1999 -0.0578 -1.3541 0.2877 -1.6095 1.3617 -2.2727 -0.0151 2.2001 2.2502 -2.6871 -0.7723 0.0734 2.0113 0.3780 0.3501 -1.6395 -2.5150 4.8005 2.1560 -0.0759 -4.8778 -1.0072 -1.5755 6.9537 0.6041 -1.1692 -6.4042 -3.9970 -1.3240 -4.6182 3.2540 1.7825 4.9975 -2.7925 -1.7261 -4.1745 -4.4505 0.0303 -4.3540 2.8416 3.0185 4.6618 2.5759 0.6202 4.4535 1.8704 -1.2580 9.3359 0.0245 -1.9694 -9.9896 2.7462 -1.9932 8.6214 1.2032 -1.2584 -10.4875 -5.2183 0.0313 2.8040 4.4695 2.4595 -1.5613 -1.9615 -0.8147 -3.4086 -3.6811 0.8750 -3.6425 1.7352 3.1909 3.7341 1.5372 0.7796 3.6150 -4.5337 0.0103 1.5266 3.7333 1.9573 -0.5537 0.5120 -1.0454 8.8544 -0.2754 -1.9880 -8.6723 -4.7171 -0.6541 3.8457 4.3192 1.9254 -2.9037 2.3531 -2.5948 7.3527 2.0233 -0.5979 -9.6429 -2.8763 -1.4723 2.4981 2.6944 0.3439 -2.0416 0.4936 -2.8376 5.7565 2.4336 -0.0483 -7.2439 -1.8148 2.7406 -0.1387 -0.3429 3.0932 -0.1196 -2.0600 1.4129 -0.8179 0.4258 2.1727 0.7955 -1.6658 0.2556 -0.0299 0.6363 0.8360 0.2710 -2.9874 -2.2010 4.8675 3.4248 0.3523 -4.5056 -2.4026 0.4228 -3.1150 1.1267 2.1137 3.2036 -3.3888 -0.6825 1.3840 2.7893 0.8812 -0.8114 -0.7229 -2.3307 5.8168 1.7614 -0.4087 -6.1593 -0.3454 -0.1544 0.1785 0.1529 -1.6004 7.6886 0.6024 -1.2716 -7.7864 -3.4934 -1.4297 3.6962 3.4571 0.9176 -3.1357 1.0989 -2.4007 6.9200 1.6801 -0.6144 -8.2455
-3.6457 3.9324 -0.0513 -1.2214 4.8684 0.7992 -2.6815 -1.9207 6.6348 0.5420 0.1399 -4.8922 -0.4375 -0.8501 0.4702 -2.6832 1.7005 -1.6711 -0.4922 2.5961 2.5243 -3.1172 -0.5751 0.7297 1.3932 1.1247 0.2213 -1.3852 -2.8241 4.9471 2.7310 0.3878 -5.6586 0.3982 -1.6392 6.1039 1.9638 -1.6910 -6.6927 -5.3750 -0.9006 -3.7583 3.2009 2.5895 4.7025 -4.1128 -1.3052 -3.5295 -5.8047 0.4166 -3.3230 2.5484 3.7532 4.5288 2.6430 1.3597 4.1705 4.0836 -1.7451 6.7884 2.8565 -4.2367 -9.2307 4.3359 -2.8806 6.1066 4.0517 -3.5437 -9.7138 -5.2713 -0.1628 3.8429 3.0338 3.2011 -2.4307 -3.1859 -0.4294 -2.8359 -4.9477 1.2273 -2.6761 1.2977 3.7833 3.7893 1.4695 1.3821 3.5151 -4.7977 -0.0532 2.4768 2.5933 2.7766 -1.2324 2.7299 -1.2124 6.8711 2.0810 -3.6953 -8.2676 -4.5369 -0.8185 4.7582 2.7386 2.4301 -3.6259 3.2598 -3.6046 5.4416 4.4113 -2.3417 -9.2139 -2.7979 -1.2602 3.1305 1.6492 0.7747 -2.2253 0.8450 -3.5872 4.9696 3.8396 -0.6179 -7.4909 -2.7134 3.0154 0.5047 -1.3085 3.5410 0.3021 -2.9028 1.6769 -0.1670 -0.2888 2.6918 1.0209 -2.2506 0.5635 0.4972 -0.0184 1.4101 0.3958 -2.4223 -2.0519 5.4409 1.6944 0.5363 -4.7494 -3.5929 0.7769 -2.4001 0.7900 2.6467 3.2785 -3.6030 -0.5687 2.1350 1.8404 1.5370 -1.1335 -0.0646 -2.7024 5.3287 2.8547 -0.6090 -6.6036 -0.8768 0.3075 0.4525 1.7430 -1.8764 6.2534 2.4710 -2.4104 -7.7565 -3.2511 -1.3960 4.3915 2.1169 1.2409 -3.5187 2.0163 -3.1108 5.5268 3.5632 -1.7672 -8.2020
-4.3132 2.5204 0.5333 -2.3225 4.0998 1.5187 -2.0664 -4.0222 5.4210 3.4793 2.1444 -5.7758 0.4742 -0.5825 -0.4071 -2.8283 1.3595 -1.7160 -0.5912 1.9835 2.5470 -2.0550 -1.4519 -0.0862 1.3954 1.9586 -0.1236 -0.2936 -2.8253 4.5349 2.3129 0.2635 -5.0406 1.6553 -1.8008 5.5261 2.4680 -2.0036 -5.9135 -4.6006 -1.4698 -4.4101 2.9206 3.1012 4.7424 -3.2856 -1.2020 -4.5024 -5.4165 -0.7660 -3.4364 2.8596 1.8869 4.1669 1.8011 4.0182 4.6183 2.9829 -0.3696 8.7343 3.2433 -3.9729 -8.9709 1.8766 -0.5883 9.4733 3.4768 -2.8129 -9.8325 -4.6477 -2.5993 2.4537 1.2821 4.4172 -2.9601 -2.6780 -0.2352 -3.6053 -4.8559 0.1378 -2.6119 1.6776 1.4980 3.4192 0.7093 3.6620 3.9165 -4.0440 -2.0729 1.2460 1.1644 3.8809 -1.7322 3.0298 -0.7530 7.3281 2.8889 -3.8205 -7.6760 -3.8700 -2.9644 3.4865 1.7673 3.6058 -4.0620 0.7003 -1.2106 8.8818 3.3367 -1.5566 -9.3587 -1.8613 -2.3822 2.2590 2.0184 1.7496 -2.5180 -0.2179 -2.1502 6.8094 2.8166 -0.2128 -7.3209 -3.0355 1.9419 0.7536 -1.9701 3.0141 0.6731 -2.8103 0.8635 -0.2785 -0.6270 2.4849 1.1123 -1.7168 -0.0442 0.0244 0.0190 1.5976 0.1631 -1.5929 -3.3035 4.5436 2.7162 1.5917 -4.9885 -3.4236 0.3870 -2.6735 0.6547 2.3597 3.2699 -2.7080 -1.9365 1.1603 1.5133 2.4863 -1.5104 0.3478 -2.2720 5.6238 2.5368 -0.6099 -6.0870 -0.3605 0.2754 -0.0884 1.9470 -1.3271 6.7850 2.7376 -2.4760 -7.1880 -2.4211 -2.8471 3.3936 2.1115 2.3221 -3.8503 0.7519 -1.5571 7.5884 2.9407 -1.4124 -7.9828
-2.5483 -0.8938 1.2259 -2.8717 1.8202 1.4999 1.3710 -1.5057 6.5210 -0.4953 2.1800 -6.8705 2.4686 1.3144 -0.7007 -0.8873 -0.9411 -1.1787 -0.5354 3.4022 1.6800 1.9884 -1.0993 0.4912 0.6361 3.3375 -1.0295 -0.1873 -2.1854 4.9531 0.1396 0.4824 -5.4107 -2.6010 -2.2429 4.9907 1.6489 -1.3962 -5.7288 0.7820 -4.5453 -2.8014 0.1756 2.4783 5.8005 1.3415 -3.3614 -3.1055 -0.3806 -4.5927 -1.9332 1.1366 2.1954 4.9030 -1.0770 3.0650 5.3614 -5.6270 -0.3750 6.1982 3.5801 -3.2817 -8.2786 -4.9608 0.6369 6.7900 3.1585 -2.4584 -9.4135 4.2612 -0.9172 3.5365 -1.9548 4.3462 -3.5467 0.7719 -2.1339 -2.5816 -0.9020 -3.4561 -1.4358 0.9278 2.4928 3.4967 -1.2794 3.3220 4.0577 3.7877 -0.8404 2.1676 -1.2105 4.3064 -2.4262 -4.9066 -1.4553 5.5344 3.1250 -3.0362 -7.0310 3.4070 -1.2250 4.5280 -1.6712 3.4309 -4.6386 -3.5046 0.6719 6.7811 2.2892 -1.4386 -9.2478 1.5631 -1.3720 2.9660 0.1840 2.5490 -3.3485 -1.4941 -0.5061 6.0071 0.9768 -0.1622 -7.5501 -1.4092 -0.0496 1.1567 -1.8259 1.3258 0.6809 -0.3898 -0.6764 0.2320 -0.6255 2.2211 0.7518 0.9487 -0.1108 0.2902 0.3528 2.1192 -0.2898 1.0483 -1.7049 5.3523 -0.3266 1.7487 -5.7337 -0.2953 -2.1758 -1.7636 -0.2422 3.0167 3.0860 2.4881 -1.0507 1.8910 -0.1265 3.3444 -2.3078 -1.3949 -1.6296 5.3228 0.9070 -0.3177 -6.2348 1.3280 1.1190 -0.2641 -3.5666 -1.4194 5.5233 2.2018 -1.9457 -6.8720 2.0008 -1.4614 4.2353 -0.6458 2.5642 -4.5390 -2.8515 -0.3237 6.1659 1.7986 -1.2032 -7.9158
-2.9743 4.5576 -0.5157 -0.4907 5.5972 0.0245 -0.9587 -0.3102 6.5485 1.1201 0.7793 -6.3537 0.4004 -0.1261 0.1405 -2.1665 2.1793 -1.9905 1.3754 3.9603 1.3607 -2.2493 0.1448 0.6743 2.1171 1.8968 -0.5829 -0.1262 -1.7551 4.9353 2.0726 -0.8991 -5.0417 1.2781 -3.7060 5.1490 2.4509 -3.2581 -5.4283 -4.8757 -0.8180 -3.4200 -0.3615 4.6838 5.2090 -3.5633 -1.0996 -3.3364 -5.3593 0.5018 -3.0547 -0.2681 3.4143 4.7734 0.1194 5.7734 4.3795 1.9160 -6.7236 7.2909 2.9358 -5.8063 -8.0794 1.0054 -6.4351 8.2426 2.6938 -4.8959 -9.1998 -4.0408 0.8720 3.9515 3.2420 3.4900 -3.7888 -2.6338 -0.0869 -2.8717 -4.4988 1.4405 -2.6199 0.3192 3.1336 3.4749 0.6551 5.5151 3.1739 -3.7209 0.8462 2.5378 2.9739 3.3009 -2.4831 2.1141 -5.8324 6.1539 2.8447 -5.3794 -6.8018 -3.2022 0.3130 4.8412 2.8620 2.4816 -4.7646 0.1952 -5.2276 8.1533 2.3706 -3.6024 -8.9880 -1.6280 -0.2511 3.0867 1.9567 1.1504 -2.9459 -0.2765 -3.2485 6.7780 2.0726 -1.8634 -7.2230 -1.9733 3.7104 0.0294 -0.6065 4.2373 -0.3571 -2.1979 2.2999 -0.4754 0.4175 3.3982 0.3451 -1.4453 1.2575 0.2116 0.7288 2.1213 -0.2236 -0.9722 -0.7635 5.4069 1.7637 0.4108 -5.3777 -3.0837 1.1262 -2.5023 0.7459 4.1452 2.6958 -2.5599 0.3110 2.1193 2.3006 2.0888 -2.0463 0.2712 -2.8753 5.6372 2.1872 -1.9650 -5.9069 -0.0753 1.0115 0.0430 1.3724 -4.7183 6.0762 2.4850 -4.0037 -6.5929 -1.9486 -0.2770 4.3948 2.2477 1.3583 -4.3519 0.3861 -4.4131 7.1061 2.2601 -3.1676 -7.6207
1.3216 2.6472 -1.6063 3.1259 0.7632 -0.7423 -2.7289 1.3510 6.4172 1.4638 -2.4020 -6.1868 -2.0028 -1.6671 0.4294 -0.8000 0.8720 -2.5097 2.2699 -1.1064 1.1926 -2.5386 0.9939 0.3555 0.3816 -2.8516 -0.2782 -2.3650 -0.5915 5.2112 2.1081 -0.6715 -4.7610 -0.6493 -0.8904 6.9121 1.9139 1.7499 -4.9785 -4.5753 2.2479 -3.9991 2.6021 1.6380 4.4621 -4.4459 0.9669 -3.6099 -3.4289 3.1389 -3.9551 1.4096 1.0624 4.2252 3.7474 1.3028 3.6356 1.3136 -3.5247 8.7214 0.8345 4.4497 -7.2988 0.7262 -4.5872 8.1349 0.4541 3.5547 -8.3928 -2.1253 3.7007 2.9979 2.0013 -5.0264 -2.8671 -3.1665 0.4840 -3.1245 -2.2424 2.6924 -3.5039 1.2638 0.1173 3.1321 3.6125 0.4319 2.6206 -2.2096 3.0367 1.7126 1.4217 -4.6115 -1.7248 0.9074 -2.1675 8.3800 1.3467 3.9657 -6.1458 -2.2095 2.9830 4.1311 2.1538 -4.1065 -3.9833 -0.3331 -4.4029 7.1508 0.6119 2.2188 -8.2824 -2.4947 0.9285 2.8791 1.0020 -2.4286 -2.6760 -1.6525 -2.7153 5.9407 1.3195 0.3917 -6.7411 0.8767 1.6073 -0.7477 1.7693 0.3953 -0.9177 -0.5708 1.2926 -1.0665 1.3527 -0.6181 0.1060 -1.2677 0.4599 -0.0907 0.1952 -1.4124 -0.1846 -2.5157 0.7782 5.3513 1.7382 -1.9756 -5.0701 -2.1144 1.3191 -3.0427 2.3176 -0.1667 2.3440 -2.3657 1.7021 1.6519 0.9233 -3.2486 -1.6119 -1.5805 -1.4002 6.0082 1.7696 0.4497 -5.4952 -1.0841 -0.9220 0.0679 -0.0665 -2.0003 7.4744 1.5142 2.5406 -6.0453 -2.3901 1.5389 4.0760 1.6885 -2.8484 -3.8770 -0.7077 -3.1514 6.8495 1.1733 1.7222 -7.0542
-3.4570 3.9026 0.3897 -0.8580 3.7262 -0.4916 -0.7605 -1.6625 7.0976 1.9373 1.1580 -6.4444 -2.2735 -1.7885 0.5265 -4.4973 1.3713 -0.6954 0.6039 1.3924 0.2821 -3.9754 -0.3870 2.0910 -0.5656 -0.7863 -1.3294 -0.2286 -2.4149 4.9734 2.8409 -0.6491 -5.2813 2.0046 -1.7992 5.7234 5.1236 -1.4719 -5.4298 -8.6486 2.4430 -0.5339 1.5029 2.9465 4.1728 -7.8340 3.0786 -1.3951 -8.1118 1.4272 0.3539 1.9202 3.6051 3.0771 0.7546 1.7094 4.0325 5.6330 -2.6119 5.2322 7.9881 -1.9055 -7.7574 5.4507 -3.6096 4.3439 7.3048 -1.3555 -8.9292 -3.4680 1.1270 5.5419 -1.8210 0.0362 -4.7870 -6.4197 2.7479 -1.4348 -6.8024 1.1207 0.3163 1.5975 3.0917 1.7592 0.4509 1.2357 2.8098 -3.9476 0.9084 4.1930 -1.8150 -0.2339 -3.4690 4.4934 -1.9022 5.7990 7.3593 -2.0072 -6.5660 -2.5158 0.3286 6.0526 -0.5667 0.1573 -5.5090 4.1090 -4.0063 3.9355 6.0212 -0.9441 -8.8554 -2.4371 -0.9831 4.0162 0.6088 -0.2154 -3.4181 1.7152 -3.5188 4.2268 4.0813 -0.6491 -7.3136 -2.7356 2.6974 0.5976 -1.6633 2.5614 -0.4635 -3.7071 1.5334 0.5920 -0.8388 1.3512 -0.1449 -3.1697 0.2656 1.0779 -1.3851 0.0721 -0.4927 -0.9408 -1.6503 5.8820 1.8432 0.2547 -5.6191 -5.9135 1.8231 -0.5972 0.8562 1.9769 1.6251 -3.4388 -0.0886 3.4471 -0.5536 -0.3475 -2.7518 1.1404 -2.5936 4.9708 3.9808 -0.9015 -6.0161 -2.2810 -0.5605 0.3735 3.2605 -2.2682 5.4215 5.9915 -1.5677 -6.5049 -1.9676 -0.7647 5.2614 0.5989 0.0276 -4.8499 3.0655 -3.3556 4.4694 5.3603 -1.0771 -7.5843
-2.2083 0.2452 1.2978 -2.5135 2.8992 0.6251 0.4380 -1.1892 6.8793 -0.3828 1.3102 -7.1013 3.0478 1.8404 -0.5980 -0.2504 -0.5160 -0.7608 -0.1729 4.4887 0.5894 2.3884 -0.0619 1.2349 1.3323 3.6132 -1.7845 -0.1939 -2.3128 4.9594 -0.0409 -0.0769 -5.2589 -2.2145 -3.5230 4.4222 0.9707 -2.2886 -5.1042 1.3609 -4.4610 -1.2317 0.5040 4.7424 4.8070 0.1509 -4.3161 -0.6615 2.1101 -3.2896 -1.6482 1.5215 4.3566 4.0162 -0.7752 5.0996 4.2215 -5.9438 -3.4703 4.8651 2.3420 -5.0797 -7.1434 -5.9969 -2.3503 5.6140 2.0576 -4.4630 -8.4402 3.2665 1.0728 4.7656 -1.1916 4.4770 -4.4208 -0.4075 -2.9885 -0.4657 1.5932 -2.0612 -1.4689 1.3307 4.2652 2.5789 -0.9528 5.0154 2.8920 3.2602 0.9708 3.3186 -0.3935 4.5621 -3.3408 -4.6671 -3.9907 4.3897 2.0047 -4.4655 -5.9880 2.4178 0.3291 5.4962 -1.1677 3.2818 -5.2460 -4.7787 -1.6319 5.9617 1.4434 -3.2637 -8.5177 1.4724 -0.6571 3.4972 0.5655 2.3822 -3.8059 -2.3399 -1.6093 5.6875 0.5274 -1.3762 -7.1718 -1.0568 1.0484 1.0891 -1.3887 2.1838 0.1438 0.0592 0.1779 0.5539 -0.1934 3.0830 0.0549 1.3877 0.7729 0.6003 0.9093 2.6720 -0.7605 0.5349 -1.3723 5.6679 -0.2530 1.1414 -5.8924 0.2933 -1.9003 -0.8349 0.1293 4.5490 2.0424 2.3828 0.1558 2.7059 0.4939 3.4596 -3.0036 -1.5637 -2.4559 5.0384 0.4778 -1.2086 -5.8575 1.8554 1.7632 -0.2773 -3.5460 -3.3308 4.7135 1.3433 -3.1921 -6.0872 1.4862 -0.5788 4.8410 -0.3311 2.2722 -4.9408 -3.6102 -2.1177 5.5203 1.0754 -2.6322 -7.2783
-2.8334 4.4598 0.3167 -0.3679 3.8422 -0.7416 -0.7033 -1.6201 6.9118 1.3717 0.4382 -6.9900 -2.6213 -1.3410 0.5180 -4.3387 2.1449 -0.6153 0.7439 1.3198 -0.0284 -3.9179 0.3568 2.1818 -0.9036 -0.6740 -1.4735 -0.3133 -2.2797 4.7244 2.1562 -1.2851 -5.6391 2.0058 -2.0425 5.4240 4.3304 -2.3691 -5.5287 -8.5105 1.4960 0.1198 2.0634 2.7191 3.7982 -7.9724 2.6838 0.4505 -7.6767 0.4590 -0.4609 1.2268 1.6664 3.7534 2.5206 3.3349 2.5658 5.4587 -3.3438 4.7527 7.9078 -1.9962 -6.4641 5.1050 -4.2510 3.8199 7.7399 -0.7248 -7.1695 -2.8174 1.7489 5.5495 -2.2539 0.3827 -4.8315 -6.5585 2.9302 0.2228 -6.3654 0.6817 -0.6602 0.7571 1.1640 2.4730 2.0831 2.8730 1.3816 -3.4557 1.6283 4.2539 -2.1860 0.1408 -3.5101 4.4531 -2.5108 5.3995 6.8514 -2.6332 -5.9134 -1.9945 0.7800 5.9858 -1.0819 0.1855 -5.6651 3.7079 -4.4242 3.4424 6.5233 -0.1518 -7.2883 -2.3784 -0.5282 3.9814 0.1646 -0.4321 -3.6788 1.4218 -3.6113 3.8496 4.1188 -0.3665 -6.6464 -2.2979 3.1586 0.5142 -1.3519 2.8297 -0.6226 -3.4429 2.1701 0.6120 -0.7168 1.5016 -0.3429 -3.0875 0.8423 1.0966 -1.4929 0.3235 -0.5991 -0.8849 -1.4848 5.7043 1.2573 -0.2941 -6.0111 -5.7789 1.9602 -0.2901 1.1368 1.7703 1.3328 -3.2257 0.5486 3.4851 -0.9261 -0.2667 -2.9056 1.0125 -2.6572 4.6629 3.5051 -1.3095 -5.9433 -2.4177 -0.1328 0.3442 3.1691 -2.6714 5.0505 5.5605 -2.0161 -6.0591 -1.7523 -0.3999 5.1681 0.0791 -0.2129 -5.1127 2.7877 -3.6614 4.0499 5.4068 -0.8487 -6.7054
-2.3932 1.3794 1.5388 0.1788 1.7488 0.6232 -0.8898 -1.6997 7.2459 3.0579 -0.2861 -6.1246 -0.7799 -3.8721 -0.3531 -3.2969 -0.6399 -0.3739 1.8256 -0.5672 0.4678 -2.5615 -3.2180 1.6030 0.7156 -2.1276 -1.8122 -1.5585 -0.2593 5.5591 1.6353 1.5186 -6.5332 0.3672 0.9512 6.4183 2.0148 3.3549 -8.0747 -6.9388 -2.8990 -0.3294 2.7925 -0.5830 4.6377 -5.8985 -3.3425 -1.0575 -6.8358 -1.6429 0.3921 3.0923 0.4939 3.8902 2.1199 -1.7195 4.0351 2.0054 4.3215 6.4236 4.6631 5.4577 -9.6110 1.0807 4.9454 5.6662 5.7777 4.8211 -8.9070 -0.9729 -4.9608 4.5866 -1.3512 -0.9766 -4.7508 -4.6668 -2.5760 -1.1021 -5.6920 -0.9354 0.3580 2.7326 0.5200 2.4854 1.7813 -1.6934 2.7332 -1.5064 -4.7208 3.2590 -1.0272 -1.5065 -3.5569 1.8642 2.9111 6.7593 3.3877 5.0685 -9.3958 -0.8847 -3.9516 5.4710 -0.3244 -0.3669 -5.5777 -0.0750 4.2199 5.1523 5.5618 3.8332 -8.0126 -1.8573 -2.4070 3.8828 1.2793 -0.8099 -3.8109 -1.1781 2.0205 5.0975 3.7997 2.4115 -6.9629 -1.5728 0.2490 1.2830 -0.5451 0.5971 0.2269 -2.4522 -0.9070 0.8606 0.3787 -0.5699 0.0517 -1.8165 -2.2151 0.8711 -0.0963 -1.7018 -0.6895 -1.2243 -1.4997 6.0809 1.9884 0.2974 -5.9788 -4.5554 -1.4336 -0.3992 2.0722 -0.5144 1.9328 -1.9197 -3.4883 2.9148 0.3381 -1.4108 -3.0609 -0.8105 0.8937 5.6760 2.4907 2.3920 -7.1692 -0.8908 -2.6718 -0.0748 0.7957 2.2496 6.2940 3.1744 4.0184 -8.4375 -1.3311 -2.6161 5.1028 0.9293 -0.2496 -5.1034 -0.1935 2.9203 5.4587 4.1961 3.4451 -7.7799
-3.3199 2.0591 -0.5931 -1.3309 3.5665 0.4754 -3.3109 -2.7477 6.0279 4.2770 1.5408 -5.2825 0.9580 -1.7367 0.2914 -1.6258 0.1790 -2.1466 -0.2919 1.5497 2.3382 -1.6891 -2.2034 0.1609 2.2155 0.6524 0.3249 -1.1387 -2.7463 5.2356 2.2597 0.4220 -4.9389 -0.9975 -1.0034 6.9292 1.1594 -1.1326 -6.4547 -4.8214 -0.3705 -4.9633 2.9347 2.2468 5.0782 -4.3018 0.8576 -4.7873 -4.3197 -1.4859 -4.1804 2.7381 1.0095 4.5897 2.0583 3.3319 4.6733 1.4388 0.8915 9.0570 0.7850 -2.0294 -10.0439 2.5464 0.2486 8.6355 1.6249 -0.9431 -10.5511 -4.8974 -2.5545 2.1733 3.5872 3.5512 -1.6123 -3.2355 1.0625 -3.8212 -3.3390 -1.2939 -3.2793 1.6373 0.7563 3.6795 1.0583 3.1048 3.8013 -3.9779 -2.3865 1.0663 3.1513 2.7866 -0.5948 0.1268 0.5317 8.5358 0.5513 -2.1719 -8.7207 -4.4242 -2.6630 3.4259 3.5935 3.0219 -2.9647 2.4560 -0.8252 7.6538 2.1852 -0.0482 -9.7101 -2.1389 -2.4449 2.6481 2.7538 0.9177 -2.0922 0.8997 -2.0931 6.2285 2.4499 0.5748 -7.3083 -2.2344 1.3900 0.0285 -1.0043 2.2694 -0.0015 -1.9968 0.0749 -0.6754 0.0861 1.7031 0.8733 -1.1543 -0.8580 0.0598 0.7667 0.5510 0.3120 -2.5150 -2.7008 5.0920 3.3179 1.2452 -4.5756 -2.7859 0.0363 -3.0737 0.8516 1.7679 3.2666 -2.6536 -2.3069 1.2908 2.6880 1.4316 -0.8501 -0.4088 -1.9705 6.1146 1.9804 -0.0160 -6.2182 0.2305 -0.7361 0.2223 0.0473 -0.4519 7.6290 1.1492 -1.2062 -7.8383 -2.9901 -2.6116 3.6807 3.1833 1.7606 -3.1939 1.2451 -1.1507 7.1790 1.9116 -0.2040 -8.3060
-1.7238 -1.3397 0.6110 -2.7243 1.2124 0.6178 0.7941 -1.7637 6.6308 0.4561 2.5763 -6.8526 2.9623 2.0477 -0.0450 0.4657 -0.9473 -1.3303 -0.9485 3.2855 1.3378 2.7684 -0.4629 1.0333 0.8693 3.5765 -0.9543 -0.4813 -1.7733 4.6935 0.7884 0.7828 -5.3933 -2.0978 -1.0381 6.3553 1.8706 -1.3347 -5.9030 1.2912 -5.0812 -2.1236 -0.9027 2.4317 5.5310 2.2952 -4.1883 -2.1893 -0.0550 -4.6354 -1.8131 0.2661 2.6707 4.9092 -2.1460 2.4788 4.7837 -5.7704 -0.5559 6.9233 2.5012 -3.7616 -8.6476 -6.1720 -0.9662 5.7033 1.7481 -3.0262 -9.6648 3.9527 0.1377 4.6038 -1.6217 4.4456 -3.6252 2.0383 -2.7839 -1.9205 -0.2944 -3.3343 -1.5708 0.2873 2.9542 3.4845 -2.1279 2.7418 3.4660 3.8924 0.1470 3.1540 -0.9603 4.4281 -2.4529 -4.3565 -0.5364 7.2738 2.5892 -3.3074 -7.3781 2.9335 -0.3710 5.3182 -1.1798 3.5998 -4.7212 -5.2014 -1.3984 4.7052 1.1091 -1.8773 -9.3597 1.7442 -0.9595 3.2934 0.6534 2.8411 -3.3206 -2.8002 -1.7298 4.2799 0.6671 -0.2387 -7.5349 -0.8285 -0.2498 0.7596 -1.4165 0.9895 0.1208 0.5074 -0.6126 0.1493 -0.5188 2.1390 0.4636 1.6200 0.2525 0.5141 0.6880 2.2948 -0.2910 0.6630 -1.5185 5.4344 0.3945 2.0690 -5.7372 0.7989 -2.3748 -1.5917 -0.8628 2.9626 2.7857 2.8217 -0.3634 2.5190 0.2003 3.5673 -2.2836 -1.7787 -1.5180 5.0867 1.0936 -0.2262 -6.2806 1.8291 1.5598 0.0469 -3.4667 -0.9353 6.3547 1.9001 -2.0841 -7.0680 1.7729 -0.9272 4.6386 -0.0920 2.8238 -4.5646 -3.9023 -1.3763 5.0347 1.1966 -1.4189 -7.9992
-3.8554 3.4292 -0.1253 -1.8009 4.9368 0.8644 -2.9818 -1.9543 5.9388 3.1929 1.2148 -5.9887 0.6366 -0.2151 -0.1201 -2.2874 1.8171 -2.0074 -0.3507 2.8542 2.2810 -1.9812 -0.7818 0.0600 1.7932 2.2357 -0.1771 -1.0311 -1.0753 5.0623 1.4892 0.0157 -4.9544 1.2633 -1.2621 5.7859 0.7240 -2.2737 -5.2237 -4.1871 -1.1493 -4.4449 3.1057 4.0195 4.5306 -2.8718 -1.2553 -4.1846 -4.9440 -0.0281 -3.9162 2.5373 4.9203 3.7093 2.5347 2.6901 4.6562 3.7871 -3.6722 7.1716 1.5348 -5.5349 -6.8074 2.9614 -4.7350 7.2522 2.7600 -5.0756 -7.4635 -4.9899 -1.4063 2.2986 2.5183 4.3270 -3.2001 -2.2111 -0.2487 -3.3748 -4.3345 0.9006 -3.1572 1.3535 4.5619 2.9492 1.4488 2.3518 3.9385 -4.1781 -1.1550 1.1245 2.3068 3.9565 -1.9245 3.3043 -2.3885 6.6770 0.7809 -4.6916 -6.0690 -4.4109 -1.4930 3.5085 2.4970 3.3317 -4.2576 1.5676 -4.6251 6.8421 3.1699 -3.7939 -7.3519 -2.2143 -1.1402 2.5484 2.0976 1.6284 -2.5770 -0.1174 -3.0937 5.9202 2.6534 -1.5944 -6.2823 -2.6722 2.7767 0.3145 -1.4994 3.7242 0.1870 -2.4702 1.5394 -0.5250 -0.2480 3.1377 0.7927 -1.5112 0.5892 0.0120 0.3688 2.0624 0.0425 -2.3456 -1.5031 4.9891 2.3947 1.0610 -5.0692 -2.9171 0.7741 -2.8591 0.8435 3.3190 3.0371 -2.8476 -0.9991 1.2465 2.0491 2.5617 -1.6069 0.0038 -1.8228 5.5852 1.6513 -1.2507 -5.4832 -0.1246 0.7566 -0.0212 2.0209 -2.2878 6.3030 1.2289 -3.3297 -5.9632 -2.9680 -1.3455 3.6455 2.2886 2.0361 -3.9581 1.1329 -3.4413 6.3879 2.3506 -2.9066 -6.5685
-1.2317 3.6953 -1.5588 1.1672 4.4600 -0.5094 -2.2178 0.4683 6.4145 4.0047 -1.9135 -5.1204 0.8836 -1.1963 0.7500 -0.5001 0.9341 -2.3527 2.2466 2.9459 1.5922 -1.7110 -0.4501 0.4269 3.0843 0.3973 0.3572 -0.8300 -1.0912 5.4157 1.9102 -1.0601 -4.5419 0.4203 -2.9298 6.3445 1.7042 -1.6001 -6.9156 -3.5351 0.9625 -5.3828 -0.3501 4.6185 4.5647 -2.5449 1.8712 -5.4346 -3.5930 0.0177 -4.2821 -0.3568 3.2871 4.3747 0.5123 5.4616 3.7565 0.1436 -5.9119 8.6075 -0.7434 -1.9058 -9.6764 -1.1342 -5.7038 8.9847 -1.9261 -1.6773 -8.8449 -4.2536 1.0979 2.7998 5.5924 0.9599 -2.3744 -1.5268 1.8946 -4.3987 -2.6560 0.0458 -3.3171 0.5208 2.6905 3.3835 1.3146 4.9120 2.8279 -3.5687 0.7072 1.5832 4.9898 0.9689 -1.1706 0.8077 -4.9968 7.6872 0.4916 -1.9425 -9.1329 -3.7314 0.7838 3.9979 4.9766 0.2643 -3.4925 -1.8819 -4.5608 8.4773 -1.8174 -1.5094 -7.5093 -1.8063 -0.2463 2.9479 3.1923 -0.4249 -1.9994 -1.7605 -2.6062 6.9932 -0.1793 -1.2816 -5.6299 -0.5890 2.8313 -0.6353 0.9042 3.0760 -0.6664 -0.9304 1.3944 -0.9699 1.5097 2.2876 0.4558 -0.6126 0.4233 0.0692 1.7197 0.8850 0.2422 -1.8410 -0.1451 5.4188 3.2870 -1.1984 -4.4297 -1.5858 1.0300 -3.3682 1.3168 3.4711 2.6294 -2.3890 0.0644 1.6493 3.7137 0.2955 -0.9897 -0.7520 -2.1819 6.2561 1.1453 -1.3126 -5.6607 0.6777 -0.0363 0.3715 0.1200 -3.9424 7.2258 0.5875 -1.7680 -7.7100 -2.4539 0.0903 4.0809 3.8245 -0.4041 -3.3046 -1.2630 -3.7230 7.6337 -0.4962 -1.5730 -6.9403
0.0582 4.0401 -1.2645 2.3930 3.5874 0.1078 -3.4697 -0.0158 6.1223 3.9661 -1.6309 -5.2828 -0.4253 -1.4581 0.5466 -0.4142 1.3776 -2.3245 2.4233 1.5377 2.0530 -2.3983 0.3676 0.1518 2.2679 -0.9585 0.4929 -2.7172 -1.7402 4.7753 2.1791 -0.2387 -4.7432 -0.9537 -1.7145 6.4528 0.0245 0.0569 -5.8325 -3.8812 0.3076 -4.6048 0.6932 4.1424 4.9802 -3.2074 -0.6495 -3.9423 -3.4233 1.6850 -4.5541 0.0272 3.0228 4.6441 1.9669 4.4458 4.3538 1.5983 -3.8937 8.1256 -1.9304 -0.8167 -8.8683 1.2852 -5.0303 7.4712 -0.8490 -1.5511 -9.5273 -4.1525 2.4480 2.8093 5.4965 -0.9223 -1.3990 -2.0289 -0.3016 -3.1712 -2.3360 2.0102 -3.8314 0.5841 2.1147 3.6558 2.4794 3.6099 3.4343 -3.5767 2.0429 1.5427 4.6025 -0.9639 -0.3944 0.8725 -2.6586 7.8594 -1.7431 -0.2285 -7.6670 -4.0505 1.6441 3.8815 5.0368 -0.8744 -2.7758 0.2083 -5.0516 6.4887 0.3669 -1.6622 -8.9516 -2.7755 0.0196 2.6168 2.7540 -1.0102 -1.9640 -1.4907 -3.6671 5.3674 1.6915 -1.1047 -6.9110 0.1386 2.9279 -0.3850 1.5826 2.4857 -0.2619 -0.7510 1.8206 -0.9108 1.6317 1.4082 0.7803 -0.9996 0.7118 0.0026 1.2665 0.0859 0.3628 -3.1768 -0.4552 5.0125 3.3173 -0.9840 -4.4667 -1.6232 0.9795 -3.0940 1.7548 2.4068 3.0586 -2.9077 0.8798 1.4501 3.1773 -0.9668 -0.6863 -1.7424 -2.3807 5.5147 1.3343 -0.4469 -5.8161 -0.0736 -0.2960 0.3094 -0.1150 -2.6803 6.9537 -0.4400 -0.3483 -7.0717 -3.3345 0.3788 3.7882 3.7180 -0.9088 -3.0439 -0.4608 -3.9134 6.2561 0.5518 -1.0216 -7.6768
-1.5483 2.8603 -0.7057 0.9029 3.0916 0.4795 -4.0790 -1.5764 5.8447 3.8746 -0.4184 -5.6652 0.1016 -2.6201 0.0785 -1.0573 0.4091 -2.2366 0.7246 0.7436 2.2500 -2.3961 -1.6318 0.0252 2.4156 -1.2361 0.1476 -1.8966 -1.7311 5.0847 1.7558 0.1241 -4.8603 -1.5249 -0.1143 6.8660 1.8364 1.2176 -7.0427 -3.9030 -1.3419 -4.9258 3.9729 -0.3250 4.8338 -3.7569 -0.0047 -4.9078 -3.1248 -2.1670 -4.0207 3.7537 0.9752 4.5669 3.1026 -1.3389 4.2670 1.1231 1.1983 9.1749 -0.2884 2.7124 -9.6816 2.1115 0.3805 8.7599 -1.5633 2.3713 -9.0488 -5.3762 -0.3788 2.0255 5.3189 0.2038 -1.7186 -2.8320 0.6151 -3.9730 -2.2432 -1.5951 -3.1827 2.6596 1.3640 3.6938 2.0758 -0.9780 3.4777 -4.5028 -0.6970 0.9127 4.5577 -0.3000 -0.7305 -0.2097 1.1109 8.5921 0.8849 2.3470 -9.1232 -4.9723 -0.6161 3.2857 4.7893 0.2941 -3.0680 1.8635 -0.6227 7.7333 -1.6040 1.6728 -7.8936 -2.8753 -1.5414 2.4991 2.7494 -0.7568 -2.2803 0.1615 -1.5281 6.2068 -0.1881 0.6638 -6.0943 -0.9960 1.7250 -0.0551 0.5139 1.8319 -0.0488 -1.4680 0.4822 -0.7740 1.1438 0.7477 0.7902 -1.2415 -0.7586 -0.0490 1.1273 -0.5697 0.1840 -3.2572 -1.5189 4.9338 3.1079 -0.1614 -4.7427 -2.1153 -0.1468 -3.1261 1.8610 0.4242 3.1561 -3.2897 -1.2313 1.1406 3.2102 -0.7637 -1.0163 -1.0889 -1.1469 6.0376 1.1308 0.6481 -5.9707 0.0020 -1.3858 0.0700 -0.4311 0.1967 7.6374 0.8226 1.5964 -7.9000 -3.6661 -1.2087 3.5370 3.5523 -0.1639 -3.3326 0.6337 -0.7005 7.2061 -0.3456 1.2681 -7.3233
-2.3426 0.2229 1.1243 -0.1414 1.7221 0.5540 -1.2786 -1.4651 7.2919 3.0180 1.9174 -4.9363 1.8739 -3.7024 0.3460 -1.7471 -2.0864 -0.6838 2.3470 0.5185 1.1466 -0.4319 -3.9007 1.7887 2.7555 -1.5029 -1.0034 -2.0095 -0.6091 5.2674 1.1546 1.2820 -6.1769 -1.2710 1.4353 6.3598 0.4048 1.9906 -8.3808 -5.9009 -3.0982 -1.0631 2.0472 0.8113 5.4076 -5.5596 -1.8259 -0.7929 -4.8683 -4.1106 -1.1978 2.3252 -0.3851 4.8594 1.8562 1.9716 4.5568 -1.4202 5.1714 6.0927 1.0621 4.4273 -11.1083 -2.1704 5.2177 4.9734 2.1429 5.1305 -10.4154 0.9612 -4.4245 5.3002 1.8807 -2.6073 -4.4832 -4.1602 -1.4695 -0.6512 -3.5731 -3.7851 -1.0294 2.4174 -0.5202 3.4163 1.9285 1.8450 3.2203 0.7480 -4.5631 3.8708 2.1379 -2.6401 -3.1625 -1.0377 3.8938 6.6794 0.4072 3.4021 -10.5213 0.3159 -3.4663 5.9891 1.8811 -1.3394 -5.1942 -2.6066 3.9910 4.3174 2.5102 4.7788 -9.1650 -0.8186 -2.7221 3.9849 2.3410 -0.2267 -3.0879 -2.5219 1.5345 4.4354 2.0912 3.1492 -7.3233 -1.0736 -0.4082 1.1355 -0.1236 0.3418 0.2307 -1.2209 -1.8574 0.7229 1.2500 -0.2211 0.4267 -0.0817 -2.7043 1.0489 1.5681 -1.4846 -0.1695 -1.3087 -1.5016 6.0647 2.1568 1.0962 -5.2368 -3.2015 -2.4123 -0.7225 2.1946 0.5452 2.6249 -0.0986 -3.7351 3.2315 2.3713 -1.4026 -2.4365 -1.9381 0.7670 5.3349 1.2412 2.1330 -7.2606 1.1617 -2.6915 0.4041 -1.4473 2.7680 6.0793 0.8047 3.0441 -9.1868 -0.5984 -2.5650 5.3027 2.0524 -0.1916 -4.5122 -2.2452 2.8199 4.8599 1.7889 3.6978 -8.5472
-1.4717 -1.2262 0.7592 -2.8924 1.1102 0.7193 0.7131 -0.6319 6.7754 -0.7654 0.0867 -4.2383 2.5851 2.8775 0.0281 0.6437 -0.4875 -1.1929 -1.5133 3.4736 1.4142 2.8017 0.4066 1.1714 0.2537 4.0202 -0.9122 0.1200 -1.7908 4.8602 0.6874 0.7523 -5.9360 -2.0669 -1.1089 5.6798 1.3676 -0.6101 -7.8181 1.3078 -4.5989 -2.2207 -1.3133 2.6794 5.6149 0.0959 -4.0534 -2.4273 2.3661 -3.8041 -1.6232 -0.1756 2.9788 4.9625 -2.5767 2.6612 4.9005 -5.7329 -1.7987 5.3116 2.1564 -4.0833 -8.8603 -5.6191 -2.7361 4.3492 1.9512 -4.6797 -7.5393 3.8414 1.2901 4.7282 -0.2712 4.7306 -4.5722 -0.1502 -2.6719 -2.0525 2.1357 -2.5263 -1.2697 -0.2056 3.2513 3.5361 -2.6060 2.9148 3.5810 3.7891 1.2627 3.2781 -0.1058 4.9106 -3.2467 -4.5501 -1.1495 5.8611 2.0114 -2.7550 -9.0561 2.9417 0.5973 5.4486 -0.2894 3.3873 -5.1344 -4.3101 -3.1224 3.8363 1.6217 -3.9175 -6.4747 1.8436 -0.1712 3.4332 0.1272 2.5328 -2.9138 -1.8921 -2.7090 4.0406 1.0939 -1.5867 -5.7481 -0.7749 0.0030 0.8856 -1.5628 1.1143 0.2274 0.6050 -0.1411 0.2840 -0.8876 2.4139 0.5502 1.5510 0.9078 0.6420 0.2996 2.7691 -0.1653 0.8551 -0.8592 5.5766 -0.1251 0.9479 -4.8340 0.8191 -1.9404 -1.4711 -1.3714 3.1906 2.8660 2.8262 0.5622 2.6521 0.0821 3.7616 -2.3733 -1.2578 -1.8740 4.8409 1.0312 -0.4719 -6.4628 1.5426 2.2239 0.1585 -3.3483 -1.5045 5.3859 1.6648 -1.9577 -7.9120 1.8990 -0.1643 4.7768 -0.0609 2.3340 -4.3298 -3.2267 -2.5185 4.3452 1.4915 -2.5018 -6.6959
-4.0902 2.7135 -0.5588 -2.3569 4.2654 0.8287 -1.9692 -3.9922 5.2004 4.1488 1.3140 -4.9708 0.5905 -0.6403 0.0346 -2.1299 1.3223 -2.2643 -1.1436 2.1148 2.4354 -1.9727 -1.3953 -0.3249 1.5273 1.8789 0.4427 -0.1490 -2.9410 4.2325 2.2930 0.0166 -4.4169 -0.0478 -1.8636 6.4104 1.6107 -2.0980 -5.4190 -4.8929 -0.1224 -5.2245 1.8514 2.9249 5.3994 -3.6470 -0.6277 -5.1796 -5.2735 0.9408 -4.3125 0.8737 3.8277 5.2007 1.8616 1.6901 4.6369 2.3355 -0.3626 8.8848 1.8957 -4.1591 -8.5023 3.4631 -0.6215 8.1921 2.6637 -3.1724 -9.2637 -4.5452 -2.4889 2.2616 2.7553 4.2231 -2.2151 -2.6980 -0.1397 -4.1926 -4.3881 1.4045 -3.4120 -0.1576 3.5784 4.2060 0.8947 1.4484 3.7346 -3.9491 -1.9640 1.0493 2.2854 3.7575 -1.0432 1.0349 -0.7597 8.3625 1.4843 -3.9021 -7.2412 -3.7607 -2.9048 3.2700 3.0081 3.3047 -3.3127 3.4070 -1.3084 6.9072 2.9807 -1.9754 -8.7264 -1.7597 -2.3751 2.0101 2.3381 1.4767 -1.8709 1.8850 -2.3121 5.2516 2.8036 -0.5742 -6.6690 -2.9591 2.0861 0.0250 -1.8502 3.1015 0.1924 -2.5287 0.9288 -0.8477 -0.7304 2.5465 1.0356 -1.6015 0.0042 -0.2105 0.1089 1.5841 0.3497 -1.4782 -3.3264 4.2911 3.1650 1.0895 -4.2716 -3.0638 0.8077 -3.3086 -0.1295 2.4486 3.4745 -2.6113 -1.8747 0.9350 2.0384 2.3345 -0.8776 0.5685 -2.3937 5.2777 2.2496 -0.8473 -5.4953 -0.2538 0.2663 0.0568 0.9861 -1.3918 7.1818 1.8212 -2.6184 -6.6865 -2.3099 -2.8423 3.1498 2.7899 1.9860 -3.1518 2.2069 -1.6787 6.4376 2.5210 -1.7120 -7.3884
-2.9516 3.1208 -0.5627 -0.7393 4.0320 0.7823 -2.5109 -3.5575 5.5231 4.4248 1.6082 -5.3594 0.4574 -1.5661 -0.0657 -1.6561 1.0874 -2.2515 0.8369 2.1526 2.1897 -2.2540 -1.4524 -0.1493 2.1632 0.5614 0.1567 -0.5846 -2.6881 4.5710 2.2931 0.7088 -5.0988 -0.3222 -1.7441 6.8009 1.1464 -1.0803 -6.2868 -4.7180 0.5706 -5.2086 -1.7599 2.1589 5.5998 -4.2376 1.8039 -4.9686 -4.2277 -0.5592 -4.4398 -1.1401 3.2935 5.2298 -1.5564 0.9415 4.8361 2.2726 -0.5706 9.2423 1.4641 -3.4379 -9.1435 3.3474 -0.8872 8.4920 2.7734 -2.9539 -9.5842 -4.8445 -1.5675 2.6376 4.0370 3.3403 -1.5222 -3.2250 2.0021 -3.9454 -3.2940 -0.3747 -3.4893 -0.2735 3.2979 4.0668 -0.7470 0.9431 3.7612 -4.2144 -1.3370 1.3526 3.4713 2.5720 -0.5737 0.9235 -0.8317 8.7573 0.8303 -2.8774 -8.0902 -4.1216 -2.0453 3.6652 3.9671 2.9382 -2.9159 3.1841 -1.5004 7.1799 3.3818 -1.9272 -8.9537 -2.1388 -2.1843 2.2776 2.7785 0.9367 -2.2268 1.5232 -2.2840 5.5429 3.1954 -0.3423 -7.0371 -2.0626 2.1795 0.0182 -0.6756 2.7822 0.1180 -2.0775 0.9042 -0.8029 0.1715 1.8104 0.8841 -1.4409 -0.2528 -0.1773 0.7164 0.7094 0.1441 -1.9470 -2.9356 4.6264 3.4390 1.3647 -4.6698 -2.7846 0.9602 -3.2149 -0.0981 2.1763 3.3454 -2.9071 -1.6052 1.1815 2.7780 1.3481 -0.9455 0.2067 -2.2600 5.6185 2.2435 -0.2173 -6.1222 -0.0545 -0.4400 -0.0484 0.7758 -1.3980 7.5515 1.4886 -1.7810 -7.4326 -2.7102 -2.3546 3.4867 3.3592 1.7851 -3.2523 1.9397 -1.7443 6.7443 2.6854 -1.3316 -7.8443
-1.7494 -1.2623 0.4993 -2.1397 1.4541 0.3923 -0.6448 -1.8980 6.9754 0.5915 -0.1057 -4.3812 3.6207 0.9361 0.8021 0.8054 -1.4372 -0.9007 -0.1343 3.1133 1.4696 2.6398 -1.3826 1.8839 2.1250 2.9017 -0.4218 -1.4680 -1.8112 4.8122 1.4722 1.0717 -6.1854 -3.0962 -0.3910 5.9338 1.2201 0.7255 -8.5761 3.0373 -5.0704 -1.3482 -1.3358 2.5139 5.5345 3.6518 -3.8899 -1.5439 1.6247 -5.1060 -1.0134 -0.0729 2.2104 5.1854 -2.2674 3.0066 4.5366 -6.4617 1.1997 5.4852 -0.1662 -1.5980 -11.1203 -6.7047 0.7055 4.2543 -0.6504 -2.5911 -10.1601 3.2107 -0.8963 5.6181 0.8595 4.4829 -3.5880 2.9032 -2.6535 -1.4120 0.9309 -3.9602 -0.8858 0.3655 2.3970 3.8136 -1.8672 3.1644 3.2632 3.4409 -0.9507 4.1864 1.2879 4.3258 -2.3205 -5.2230 0.8818 6.1831 0.4838 -0.4878 -10.7091 1.9830 -1.1334 6.1129 0.7678 3.3330 -4.4746 -5.7276 -0.1461 3.5874 -0.4531 -2.4293 -8.8345 1.1129 -1.5471 3.8920 1.7307 1.9802 -2.7083 -3.5127 -1.1918 3.8212 0.4651 -0.8806 -7.1078 -0.6933 -0.3939 0.8797 -0.8413 0.9331 0.1666 0.6278 -1.0563 0.5588 0.2048 1.8582 0.7135 1.8044 -0.4449 1.1584 1.5403 1.7258 0.2096 -0.4697 -1.7328 5.7709 1.0262 0.9269 -4.8827 1.6010 -2.6829 -1.0735 -0.5014 2.8415 2.8847 2.4281 -1.2435 3.3507 1.7014 3.0126 -1.8475 -2.6746 -1.1420 4.8382 1.0446 0.3040 -7.2483 2.4007 0.7481 0.7207 -4.3309 0.0899 5.5722 0.6913 -0.3330 -9.2952 0.8832 -1.4553 5.2150 1.2323 2.1394 -4.0611 -4.5873 -0.4278 4.2334 0.2571 -1.2503 -8.4152
-2.1883 0.6907 1.0548 0.1191 1.3697 -0.2769 0.4791 -1.1328 6.8194 -0.3218 1.0379 -6.7499 0.1822 -4.4169 -0.3911 -2.8801 -1.7396 -0.4856 2.1672 -0.6054 -0.3450 -1.4452 -3.7992 1.7069 1.2047 -2.6699 -2.2122 -1.1536 -0.3516 5.3759 1.8634 0.9732 -5.9462 0.2400 1.6296 5.5973 3.5149 2.7352 -5.6145 -7.0193 -2.1462 0.5676 3.3938 -0.1738 3.7332 -6.6065 -1.0423 -0.0807 -6.0584 -3.1711 0.9340 3.1312 -1.4091 3.2697 3.3066 0.9685 2.8422 0.2671 5.3317 5.0118 4.0662 6.3986 -5.9469 -0.9690 5.4143 4.4795 2.7553 6.6881 -6.5303 0.9045 -4.6599 4.5802 -0.9067 -2.8728 -5.3020 -5.2014 -0.8771 -0.4111 -4.7573 -3.0172 0.6284 2.7101 -1.5953 1.8910 2.9243 0.7961 1.5652 0.1864 -4.7396 3.3217 -0.3650 -3.1668 -4.1064 0.8064 4.0492 5.4438 4.4279 5.1348 -5.6343 0.7671 -3.5779 5.3666 -0.5350 -1.6456 -5.9825 -1.7949 4.2230 4.3245 1.8716 5.6978 -6.7753 -0.7539 -2.5563 3.7842 0.9141 -1.1026 -4.1142 -1.8652 1.7896 4.6910 1.4728 3.2469 -6.5485 -1.2061 -0.3063 0.8173 -0.3974 0.0571 -0.4094 -1.8931 -1.6461 0.6637 0.7146 -0.9362 -0.5627 -1.0171 -2.8060 0.7438 0.4049 -2.2354 -1.0819 -0.2038 -1.2645 5.8070 0.5677 0.4957 -6.1000 -4.3026 -1.8115 -0.0487 2.5662 -0.5277 1.0839 -0.6029 -3.7226 2.9311 0.5710 -2.2430 -3.4865 -0.9431 1.0020 5.2097 2.2476 2.2980 -6.0404 -0.1283 -3.2272 -0.2546 0.0464 2.9552 5.2975 3.4800 4.0889 -5.9126 -0.0937 -2.4785 4.9536 0.3458 -0.7998 -5.4156 -1.2905 3.0461 4.7223 2.2799 4.3561 -6.4530
-1.3820 -1.5508 0.4372 -2.8321 0.7809 0.4166 0.4123 -1.5460 6.7722 -0.7809 0.0447 -4.2429 2.6698 2.6152 0.3417 0.8888 -0.7213 -1.1835 -1.5656 3.1104 1.3718 2.7961 0.1048 1.4217 0.4133 3.7862 -0.7458 -0.4806 -1.9521 4.6742 0.4684 0.8888 -6.0228 -2.4829 -1.2342 5.8540 1.0536 -0.2891 -8.0546 4.4354 -3.0028 -1.9487 -1.9437 2.1115 5.5165 4.3659 -1.7269 -2.3691 3.2990 -3.6086 -1.2776 -0.7180 2.3658 5.0249 -3.1031 2.1735 4.6453 -6.2255 -1.2614 5.6529 1.8531 -3.6364 -9.4423 -6.3141 -1.9418 4.4922 1.7509 -4.3485 -8.1674 3.4588 0.8250 5.1001 -0.5049 4.7094 -4.2761 3.1651 -0.9484 -2.1264 2.1824 -2.8905 -1.0591 -0.5537 2.7014 3.6217 -2.9511 2.4720 3.3437 3.5581 0.8553 3.6531 -0.2095 4.8063 -2.9649 -4.9271 -0.9513 6.2360 1.6647 -2.3011 -9.5123 2.4820 0.1168 5.6941 -0.5248 3.4081 -4.9277 -5.1131 -2.3714 3.7867 1.4770 -3.6891 -7.0215 1.6425 -0.6227 3.5482 0.1971 2.4301 -2.8363 -2.6532 -2.3617 3.8598 0.9437 -1.4449 -6.0635 -0.7319 -0.3260 0.7413 -1.4585 0.8192 0.0689 0.7089 -0.4120 0.2920 -0.8308 2.0974 0.5388 1.5955 0.6242 0.7990 0.4082 2.5034 -0.0544 0.4411 -1.4031 5.5525 -0.2289 0.9699 -4.8306 2.1232 -1.4981 -1.4760 -1.6252 2.7315 2.8079 2.6772 0.1691 2.9032 0.1311 3.6134 -2.2026 -1.8528 -1.8549 4.7773 0.8059 -0.2761 -6.6735 1.6244 1.9544 0.3558 -3.8249 -1.3555 5.5900 1.3776 -1.6141 -8.2835 1.5234 -0.6257 4.8884 -0.1531 2.3178 -4.2326 -3.9220 -2.0757 4.3260 1.2999 -2.2641 -7.1102
-2.3008 4.6280 -0.6931 -0.0745 5.3643 0.7487 -3.0390 -1.6441 5.7393 4.4510 -0.6074 -4.7955 0.4912 -0.3771 0.2666 -1.1648 2.4010 -2.2013 1.1486 3.3706 2.3310 -2.1726 0.0587 -0.0165 2.4471 1.5528 0.4106 -1.6879 -2.7658 4.2319 2.1812 -0.7694 -4.2756 -0.1342 -2.3367 6.0588 0.6359 -2.4711 -5.0639 -3.3974 -0.1492 -4.8244 -1.7395 3.0295 5.4788 -2.2109 -0.5675 -4.3492 -3.8938 1.1704 -4.4760 -1.2010 4.2296 5.1995 -1.3325 1.8604 4.7212 3.1427 -3.4483 7.5036 -0.1370 -4.6793 -7.9496 3.3917 -4.4158 6.5980 0.9706 -4.2142 -8.7861 -4.7731 0.6369 2.7024 4.4222 2.9724 -2.4519 -1.4349 0.2948 -3.4777 -3.1785 1.9681 -3.6620 -0.2345 4.3572 4.1241 -0.4387 1.9778 3.7230 -4.0356 0.7555 1.4608 3.8622 2.8308 -1.2357 1.9257 -2.6511 7.4243 -0.3500 -4.1608 -6.7205 -4.3483 -0.2097 3.6555 4.2357 1.9445 -3.4634 2.4466 -4.6899 5.5225 1.8012 -3.2392 -8.3601 -2.4187 -0.8336 2.3283 2.9648 0.6627 -1.8428 0.2989 -4.0018 4.5363 2.3286 -1.7344 -6.4433 -1.5527 3.6336 -0.0083 -0.1155 4.0915 0.1260 -1.6650 2.3279 -0.7673 0.6264 3.0843 0.9490 -1.2130 1.1449 -0.0459 1.0292 1.8603 0.3275 -2.6162 -1.8051 4.5966 3.4596 -0.2388 -4.1741 -1.9115 1.5016 -3.1212 0.1113 3.2828 3.3921 -2.8998 0.0573 1.2810 3.0687 1.6499 -0.9361 -0.5230 -3.0443 4.9212 1.7500 -1.6373 -5.2551 0.1268 0.8024 0.1834 1.0591 -2.9043 6.4336 0.5448 -3.1255 -6.2806 -3.1265 -0.9809 3.4655 3.5277 0.8396 -3.1663 1.3256 -3.9568 5.4605 1.5463 -2.6826 -7.0585
-3.1598 4.1560 -0.8188 -0.9238 5.4312 0.1172 -1.4969 -0.6833 6.2415 3.7158 0.2354 -5.8313 0.6563 -0.1445 0.0241 -1.8468 1.9761 -2.3064 0.9298 3.9390 1.6221 -2.0526 -0.2196 0.2020 2.1973 2.1114 -0.2823 0.0867 -1.3573 4.6931 1.7824 -0.5509 -4.8012 0.2393 -3.2291 6.2488 0.8241 -2.7836 -4.6724 -5.1295 0.8063 -4.8053 -1.3964 4.1468 5.2155 -4.7366 2.0926 -4.7961 -4.4775 -0.1546 -3.9347 -1.0694 2.9365 4.7282 -0.9629 5.3473 4.5247 2.4462 -6.0990 7.2331 1.2089 -6.2692 -5.9039 3.4242 -5.8586 6.3364 2.3727 -5.9955 -6.7492 -4.3541 -0.1097 3.2300 3.4154 3.7180 -3.4456 -3.6502 2.5144 -3.9290 -3.4752 0.2370 -3.1278 -0.2748 2.8307 3.5172 -0.2360 5.2508 3.3978 -3.8689 -0.0088 1.8678 3.0793 3.5321 -2.1559 1.2713 -5.2388 7.3021 0.6096 -5.2844 -5.1998 -3.5087 -0.4325 4.2240 3.2799 2.6272 -4.3957 3.3295 -4.7312 5.4159 2.8756 -4.7471 -6.8554 -1.6453 -0.5314 2.6802 2.5221 1.2101 -2.5787 1.9200 -2.8342 4.7328 2.6400 -2.4012 -6.0366 -2.1416 3.3868 -0.1971 -0.8125 4.0971 -0.3491 -2.1176 2.0021 -0.8114 0.2016 3.3357 0.4500 -1.3396 1.0083 -0.0824 0.7515 2.1487 -0.1356 -1.1627 -0.9006 5.0795 2.8523 0.3182 -4.9634 -3.0521 1.6287 -3.1102 0.1090 3.9433 2.8638 -2.5649 -0.2014 1.5999 2.5710 2.2430 -1.7168 0.7494 -2.4544 5.2071 1.7793 -1.8816 -5.1713 0.0609 0.9362 -0.0663 1.1866 -4.2038 6.4548 1.1554 -3.9600 -5.3252 -2.0968 -0.6517 3.9443 2.8465 1.4233 -3.9771 2.2469 -3.9442 5.4876 2.2165 -3.7076 -6.1095
-1.3726 1.3178 0.6514 1.2488 1.0850 -0.1337 -0.6033 -1.0118 6.7058 -0.1517 0.6299 -6.5538 -0.7295 -4.3541 -0.4564 -2.5387 -0.7504 -1.0720 2.4796 -1.4588 0.0758 -2.4267 -3.1105 1.2953 1.1953 -3.0994 -1.9800 -1.4360 0.2373 4.9435 1.8608 0.8637 -5.4094 0.6546 1.4222 5.3330 3.0806 2.8334 -4.6704 -6.6906 -1.8047 -0.8872 3.3907 -0.8497 4.2189 -5.8132 -2.6719 -1.4232 -6.2299 -0.5171 -0.3984 3.9033 -0.0179 3.2950 2.5019 -1.9244 3.8136 2.3225 4.7465 4.8562 3.0533 6.5493 -4.7045 1.2983 5.3439 4.2141 1.8255 6.6770 -5.4914 -1.3355 -4.5902 4.6283 -0.2366 -3.4304 -5.4268 -4.4076 -2.3203 -1.5092 -4.9261 -0.1926 -0.4713 3.5801 -0.2065 1.8935 2.1969 -2.0968 2.5142 -1.7389 -4.4815 3.2389 0.1165 -3.7063 -4.1580 2.2169 3.3620 5.2991 3.5648 5.3368 -4.4001 -1.1480 -3.4808 5.3648 0.0203 -2.1134 -5.9806 0.0607 4.6200 3.9507 1.1722 5.5844 -5.9411 -1.7043 -2.0719 3.4773 1.0111 -1.4710 -3.8612 -1.0822 2.4603 4.2449 1.1645 3.0877 -5.9230 -0.7777 0.0307 0.5999 0.3491 0.0264 -0.4113 -1.8401 -0.9903 0.2549 1.0329 -1.3059 -0.3108 -1.4750 -2.3806 0.4829 0.4068 -2.4181 -0.9682 -1.0707 -0.9427 5.5718 0.7118 0.1910 -5.7994 -3.9745 -1.1389 -1.0319 2.7485 -1.1945 1.5147 -1.9077 -3.2698 2.6798 0.7559 -2.6865 -3.3411 -0.6432 1.3616 4.8275 2.0004 2.2367 -5.3428 -0.6093 -3.1302 -0.3257 1.0801 2.6972 5.0510 2.8597 4.1833 -4.8900 -1.3310 -2.1664 4.7662 0.6260 -1.1745 -5.2297 -0.0276 3.3462 4.3591 1.7378 4.3006 -5.6194

>  <OB_ATOM_TYPES> (1qbtB1)
O.3 O.3 O.2 O.2 O.2 C.3 C.3 C.3 C.3 N.am N.am N.ar N.ar C.ar C.ar C.ar C.ar C.ar C.ar C.ar C.ar C.ar C.ar C.ar C.ar C.ar C.ar C.ar C.ar C.ar C.ar C.ar C.ar C.ar C.ar C.ar C.ar C.ar C.ar N.ar N.ar C.3 C.3 C.3 C.3 N.am N.am C.2 C.2 C.ar C.ar C.ar C.ar C.ar C.ar C.2 C.ar C.ar C.ar C.ar C.ar C.ar

>  <ENSEMBLE_RMSD> (1qbtB1)
3.300 3.373 3.638 3.686 3.811 3.977 4.074 4.098 4.130 4.190 4.220 4.230 4.307 4.358 4.386 4.398 4.413 4.422 4.468 4.479 4.538 4.568 4.574 4.589 4.594 4.626 4.635 4.683 4.699 4.708 4.734 4.745 4.754 4.760 4.771 4.792 4.921 4.930 4.945 4.974 4.993 5.020 5.107 5.108 5.200 5.239 5.262 5.403 5.465 5.663

$$$$
