
 OpenBabel03071213D

 43 48  0  0  0  0  0  0  0  0999 V2000
  -10.0070   19.0630   26.8620 O   0  0  0  0  0
  -11.5760   18.0250   28.9640 O   0  0  0  0  0
  -11.1540   15.1220   35.9060 O   0  0  0  0  0
   -7.6190   14.0300   27.9240 O   0  0  0  0  0
   -8.4800   15.2400   22.9400 C   0  0  0  0  0
   -9.8120   15.0370   23.6850 C   0  0  0  0  0
   -7.9940   15.1790   25.4800 C   0  0  0  0  0
   -7.4930   17.8340   27.6890 C   0  0  0  0  0
  -11.6160   15.2050   28.1360 C   0  0  0  0  0
   -9.1410   14.2310   30.1170 C   0  0  0  0  0
  -10.9260   13.0660   35.0450 N   0  0  0  0  0
  -12.2660   12.8630   37.5590 S   0  0  0  0  0
  -12.6050   11.3770   38.2760 C   0  0  0  0  0
   -3.6600   17.4230   25.7340 C   0  0  0  0  0
  -13.5600   12.2170   30.5750 C   0  0  0  0  0
   -4.5720   18.4030   25.2950 C   0  0  0  0  0
   -3.9840   16.5900   26.8310 C   0  0  0  0  0
  -12.8140   11.8170   29.4460 C   0  0  0  0  0
  -13.6810   13.5810   30.9060 C   0  0  0  0  0
   -8.2910   16.5500   33.0550 C   0  0  0  0  0
  -12.0960   10.4150   37.3810 C   0  0  0  0  0
   -5.8060   18.5480   25.9500 C   0  0  0  0  0
   -5.2240   16.7320   27.4940 C   0  0  0  0  0
  -12.1790   12.7890   28.6390 C   0  0  0  0  0
  -13.0500   14.5510   30.1050 C   0  0  0  0  0
   -8.3180   15.9630   31.7790 C   0  0  0  0  0
   -9.1170   16.0360   34.0690 C   0  0  0  0  0
  -10.0010   14.3590   32.5370 C   0  0  0  0  0
  -11.5000   10.9190   36.2370 N   0  0  0  0  0
   -8.7080   15.8910   24.3120 C   0  0  0  0  0
  -10.0200   17.6840   27.1590 C   0  0  0  0  0
  -10.3490   17.4280   28.6090 C   0  0  0  0  0
   -8.6250   17.2010   26.8480 C   0  0  0  0  0
  -10.5030   15.9410   28.9030 C   0  0  0  0  0
   -8.4300   15.7430   26.7810 N   0  0  0  0  0
   -9.2970   15.0920   28.9270 N   0  0  0  0  0
  -10.7490   14.4020   35.0090 C   0  0  0  0  0
   -6.1330   17.7080   27.0430 C   0  0  0  0  0
  -12.2960   14.1520   28.9750 C   0  0  0  0  0
   -9.1650   14.8710   31.5030 C   0  0  0  0  0
  -11.5060   12.2730   36.1660 C   0  0  0  0  0
   -8.4310   14.9430   27.8830 C   0  0  0  0  0
   -9.9670   14.9410   33.8310 C   0  0  0  0  0
  1 31  1  0  0  0
  2 32  1  0  0  0
  3 37  2  0  0  0
  4 42  2  0  0  0
  5  6  1  0  0  0
  5 30  1  0  0  0
  6 30  1  0  0  0
  7 30  1  0  0  0
  7 35  1  0  0  0
  8 33  1  0  0  0
  8 38  1  0  0  0
  9 34  1  0  0  0
  9 39  1  0  0  0
 10 36  1  0  0  0
 10 40  1  0  0  0
 11 37  1  0  0  0
 11 41  1  0  0  0
 12 13  1  0  0  0
 12 41  1  0  0  0
 13 21  2  0  0  0
 14 16  2  0  0  0
 14 17  1  0  0  0
 15 18  2  0  0  0
 15 19  1  0  0  0
 16 22  1  0  0  0
 17 23  2  0  0  0
 18 24  1  0  0  0
 19 25  2  0  0  0
 20 26  1  0  0  0
 20 27  2  0  0  0
 21 29  1  0  0  0
 22 38  2  0  0  0
 23 38  1  0  0  0
 24 39  2  0  0  0
 25 39  1  0  0  0
 26 40  2  0  0  0
 27 43  1  0  0  0
 28 40  1  0  0  0
 28 43  2  0  0  0
 29 41  2  0  0  0
 31 32  1  0  0  0
 31 33  1  0  0  0
 32 34  1  0  0  0
 33 35  1  0  0  0
 34 36  1  0  0  0
 35 42  1  0  0  0
 36 42  1  0  0  0
 37 43  1  0  0  0
M  END
>  <MOLID> (1qbuB1)
1qbuB1

>  <SMILES_CANONICAL> (1qbuB1)
O[C@@H]1[C@@H](O)[C@@H](Cc2ccccc2)N(C(=O)N([C@@H]1Cc1ccccc1)Cc1cccc(c1)C(=O)Nc1nccs1)CC1CC1	

>  <FINGERPRINT> (1qbuB1)
0000000000000011000000000001101000000001100000000101100000000000000000000001100000000001000000100000000000000001000011100000000000000000000010000000000010000001000000000000000000000100000000000001000000000000100000010000010000110010000000101011000000001100000000000010000000001001100000000010000000001000000011001100001000001001001100000000101000000000010100000000001110000100000000000000100000000000100110000000001000000001001000000000000000000000000000000000100000100100000000000000100000011100000000000000110000110000000000000100000000001000000000100000000001000000100000000000000011000000001010000101000000000000101000000000001000000001100000000000000000000001000000000001100000110111100001101001000001100111000000000000100011000000100000010101000100000000000111000000000000000001000000000000001111001100000000000000000110000000000010000000000000000000000000001001000000000000010001000000010000000100000000000000000100001010000000000000111000100000000000111010000000001110000100000000000010000100000000010010011100000000

>  <MACCS166> (1qbuB1)
000000000000000000100100000000000001100000001010010001000000000010000001001111001010100101110011101100000100011000001011110010111010101111110110110101111111111010111000

>  <OB_MW> (1qbuB1)
596.246

>  <OB_logP> (1qbuB1)
4.9362

>  <OB_PSA> (1qbuB1)
134.24

>  <OB_MR> (1qbuB1)
175.452

>  <OB_ATOMIC_CHARGES> (1qbuB1)
-0.2185579591 -0.2185578222 -0.2679482163 -0.2523365043 0.0017574454 0.0017574454 0.0949350453 0.0488717039 0.0488819958 0.1217123128 -0.1504866867 -0.0490986841 0.0588370253 -2.00181e-05 -2.00181e-05 -0.0003218312 -0.0003218312 -0.0003218312 -0.0003218312 -0.0001220492 0.1079341422 -0.0042107882 -0.0042107882 -0.0042107877 -0.0042107877 -0.0026076508 0.0045578487 0.0019654397 -0.2209396949 0.0199141657 0.2020904308 0.202100434 0.1140606587 0.1143812628 -0.2627416201 -0.2586369756 0.2706869582 -0.020438516 -0.0204383867 -0.0021377753 0.1861130283 0.307479282 0.0551824289

>  <MCT_HBD> (1qbuB1)
3

>  <MCT_HBA> (1qbuB1)
8

>  <ENSEMBLE_TOTAL> (1qbuB1)
50

>  <ENSEMBLE_COORDS> (1qbuB1)
-0.4088 3.9133 -3.0581 -1.9778 2.8753 -0.9561 -1.5558 -0.0277 5.9859 1.9792 -1.1197 -1.9961 1.1182 0.0903 -6.9801 -0.2138 -0.1127 -6.2351 1.6042 0.0293 -4.4401 2.1052 2.6843 -2.2311 -2.0178 0.0553 -1.7841 0.4572 -0.9187 0.1969 -1.3278 -2.0837 5.1249 -2.6678 -2.2867 7.6389 -3.0068 -3.7727 8.3559 5.9382 2.2733 -4.1861 -3.9618 -2.9327 0.6549 5.0262 3.2533 -4.6251 5.6142 1.4403 -3.0891 -3.2158 -3.3327 -0.4741 -4.0828 -1.5687 0.9859 1.3072 1.4003 3.1349 -2.4978 -4.7347 7.4609 3.7922 3.3983 -3.9701 4.3742 1.5823 -2.4261 -2.5808 -2.3607 -1.2811 -3.4518 -0.5987 0.1849 1.2802 0.8133 1.8589 0.4812 0.8863 4.1489 -0.4028 -0.7907 2.6169 -1.9018 -4.2307 6.3169 0.8902 0.7413 -5.6081 -0.4218 2.5343 -2.7611 -0.7508 2.2783 -1.3111 0.9732 2.0513 -3.0721 -0.9048 0.7913 -1.0171 1.1682 0.5933 -3.1391 0.3012 -0.0577 -0.9931 -1.1508 -0.7477 5.0889 3.4652 2.5583 -2.8771 -2.6978 -0.9977 -0.9451 0.4332 -0.2787 1.5829 -1.9078 -2.8767 6.2459 1.1672 -0.2067 -2.0371 -0.3688 -0.2087 3.9109
-0.4358 3.3406 -2.8917 -1.8700 2.2469 -0.8446 -1.6172 -0.2424 5.9545 2.4984 -1.4711 -1.5966 1.5662 -0.6790 -6.4899 1.1250 -1.9154 -5.7659 2.1280 -0.3263 -4.0248 2.2594 2.4942 -2.3049 -1.4741 -0.6288 -1.4312 1.0125 -1.0927 0.6010 -1.3634 -2.3169 4.9439 -2.6254 -4.6423 5.3202 -3.1600 -4.9357 6.9544 5.1550 3.7392 -5.2200 -5.1898 -0.8805 0.6971 5.3395 2.5798 -4.5638 3.9826 4.5501 -4.9413 -5.1933 -0.8584 -0.6478 -3.9314 -0.8700 1.4195 1.2011 1.4955 3.4126 -2.8284 -3.8857 7.7246 4.3724 2.1480 -3.5711 3.0757 4.1400 -4.0356 -3.9395 -0.7939 -1.3772 -2.7711 -0.8507 0.7416 1.4352 0.8376 2.1425 0.4310 0.9055 4.3427 -0.0042 -0.9725 2.8779 -2.1586 -2.8324 7.1356 1.1052 -0.5902 -5.0671 -0.2395 1.9716 -2.5659 -0.5621 1.7567 -1.1070 1.1831 1.5975 -2.8870 -0.5061 0.2991 -0.7244 1.4920 0.1841 -2.8312 0.8198 -0.2676 -0.5815 -1.1295 -0.9564 5.0806 3.2705 2.8829 -3.3298 -2.7703 -0.7757 -0.7120 0.8342 -0.3355 1.8699 -1.9976 -3.1045 5.8765 1.6655 -0.5565 -1.6603 -0.1850 -0.3884 4.0776
-0.5618 3.6261 -2.2096 -2.0766 1.9552 -0.6461 -1.0858 -3.3672 4.2058 2.3016 -1.3866 -2.3995 1.2351 -0.0018 -6.8309 1.3312 -1.3438 -6.1700 1.9247 0.4084 -4.4045 2.1209 2.6344 -1.9815 -1.6379 -0.6915 -1.7923 0.9933 -1.4865 -0.0526 -1.2488 -1.4786 5.5643 -2.1118 -0.9022 8.0114 -3.3431 -1.9642 8.6369 5.3423 4.0749 -4.4384 -4.9908 -1.8120 0.6472 5.5458 3.0213 -3.6278 4.0370 4.7104 -4.4813 -5.2052 -1.2658 -0.5633 -3.6354 -2.0774 1.0919 1.7375 0.3187 3.2381 -3.5850 -2.9378 7.7424 4.4616 2.5216 -2.7997 3.0322 4.2472 -3.7147 -4.0798 -0.9040 -1.4085 -2.5986 -1.7825 0.2887 1.7870 -0.0384 1.8318 0.9127 -0.3365 4.0741 0.0583 -1.6831 2.2504 -2.8781 -2.9255 6.5553 0.9388 -0.1391 -5.3686 -0.3938 2.2173 -2.3128 -0.7424 1.5949 -0.9818 1.0187 1.9331 -2.7557 -0.6303 0.0934 -0.9739 1.3072 0.5610 -3.1062 0.7138 -0.4443 -1.0237 -0.8234 -2.1942 4.4518 3.2452 3.0967 -2.8487 -2.8198 -1.1289 -0.9922 0.9547 -0.9779 1.3458 -2.0767 -1.9058 6.5750 1.4963 -0.4709 -2.1848 0.0290 -1.3683 3.5580
-0.9655 3.2422 -1.7465 -2.4615 1.4374 -0.3428 1.1432 -0.8571 5.8724 2.0252 -1.6864 -2.2268 1.4637 1.0978 -6.4079 1.2425 -0.3844 -6.3681 1.8466 0.3508 -3.9939 1.6966 2.1938 -1.2582 -1.8941 -0.9631 -2.0082 0.4606 -2.0886 -0.0407 -0.8804 -1.1175 4.7639 -3.4274 -0.7337 5.4495 -3.7553 -0.8141 7.1603 4.8170 4.3344 -3.2611 -5.7643 -2.1704 -0.6284 3.6529 4.9619 -3.0147 5.0146 2.9672 -2.8143 -4.6853 -2.5137 0.0971 -5.5981 -1.4595 -1.8837 3.3329 -1.6329 2.4147 -2.6144 -1.0781 7.8193 2.5885 4.2675 -2.3128 4.0346 2.3271 -2.1524 -3.3579 -2.1625 -0.3704 -4.3685 -1.1198 -2.3098 2.6043 -1.8317 1.1785 2.6623 -1.4074 3.5568 0.5351 -1.4946 2.4000 -1.4577 -1.2325 7.0815 0.9386 0.4510 -5.1621 -0.7366 1.8541 -1.9464 -1.1269 1.1033 -0.6957 0.7185 1.6499 -2.2821 -1.0362 -0.3878 -0.8953 1.0749 0.3339 -2.7715 0.3044 -0.9296 -0.8973 0.5035 -1.0810 4.8469 2.7647 2.9946 -1.9139 -3.2036 -1.4646 -1.5114 1.2616 -1.7425 1.1633 -1.7494 -1.0616 5.8283 1.1901 -0.8080 -1.9746 1.2060 -1.3436 3.5584
-0.3059 3.3777 -1.4561 -1.6686 1.6495 0.1576 0.4146 -0.7283 5.5806 1.9596 -1.7980 -2.7408 0.5951 0.3192 -6.7248 0.7569 -1.1105 -6.3050 1.6004 0.3409 -4.3741 2.2832 2.1186 -1.6999 -1.7653 -0.7927 -1.4291 0.8823 -2.1720 -0.2961 -1.3900 -1.1728 4.1938 -3.9719 -0.5883 4.5704 -4.5808 -0.9306 6.1682 4.3775 5.2829 -3.7048 -4.7596 -2.2523 1.2718 4.6012 4.0113 -4.0823 3.4146 5.5672 -2.6562 -3.5083 -2.7345 1.3744 -5.0755 -1.2639 0.2563 3.1385 -2.1421 2.7570 -3.5772 -1.3925 6.9331 3.8940 2.9233 -3.4284 2.7526 4.5611 -2.0574 -2.4847 -2.2846 0.4508 -4.1198 -0.8291 -0.5842 2.7004 -2.1868 1.3758 2.2571 -1.8727 3.7355 0.4768 -1.5732 2.1251 -2.3290 -1.5305 6.3586 0.4893 -0.0520 -5.2770 -0.2783 1.9870 -1.7526 -0.4669 1.2203 -0.4679 1.0316 1.6599 -2.4236 -0.5498 -0.2615 -0.6998 1.1447 0.3373 -3.0010 0.6811 -0.9383 -1.0318 -0.0399 -1.1078 4.5030 2.9941 3.1849 -2.4617 -2.7676 -1.3514 -0.4776 1.4210 -1.9108 1.0661 -2.4058 -1.1470 5.1208 1.3090 -0.8500 -2.2798 0.8693 -1.5668 3.4131
-0.9683 3.0021 -1.3973 -2.1869 1.2973 0.4045 0.6059 -0.7406 6.6961 2.1587 -1.8536 -1.7717 -0.4881 1.0293 -5.1069 0.3407 0.2717 -6.0974 1.3702 -0.1806 -3.7948 1.7772 2.1611 -1.5121 -1.7911 -1.4452 -0.3826 1.0864 -1.9274 0.7463 -1.1035 -1.5146 5.3374 -3.4691 -2.4854 6.1007 -4.3483 -1.4878 7.2285 4.1963 3.7321 -4.6905 -3.7287 -1.6166 -4.1885 3.0746 4.3890 -4.3441 4.5851 2.5331 -3.9703 -2.5849 -2.3017 -4.0107 -4.2437 -0.7768 -3.1224 3.1773 -0.2306 3.4419 -3.6242 -0.3905 7.5074 2.2442 3.8899 -3.2606 3.8258 2.0795 -2.9573 -1.8866 -2.2309 -2.7390 -3.5823 -0.6898 -1.9551 2.7459 -0.7255 2.1495 2.3636 -0.3332 4.5066 0.6328 -1.3599 3.1595 -2.3970 -0.2440 6.8903 0.1920 -0.2469 -4.6987 -0.7390 1.6020 -1.4699 -0.8875 1.0103 -0.0897 0.6200 1.3590 -2.0722 -0.6722 -0.4737 -0.0935 0.9413 -0.0080 -2.4218 0.6697 -0.9601 -0.2539 0.1754 -1.0405 5.5843 2.5953 2.7697 -2.6012 -2.3460 -1.4302 -1.7599 1.5151 -1.2493 2.0025 -2.1980 -1.2804 6.1348 1.3187 -0.9883 -1.4958 1.0335 -0.9138 4.3674
-0.9176 3.2689 -1.9519 -1.5315 2.1796 0.5016 -0.5304 -0.9592 6.5625 2.8284 -1.1066 -1.4396 0.4278 -1.7804 -5.4286 1.0490 -2.6807 -4.4032 1.5333 -0.2802 -3.6724 1.8678 2.6859 -2.3153 -0.9462 -0.6870 0.5178 2.0827 -0.6899 1.0997 -1.2627 -2.0150 4.6282 -3.1295 -3.8559 4.1597 -4.5914 -3.6849 5.0932 3.6858 3.4416 -6.1314 -4.2904 -1.5845 -1.9780 4.2541 2.5554 -5.2944 2.4806 4.1460 -5.7306 -4.4999 -1.0831 -0.7477 -2.9356 -1.7442 -2.4745 2.2931 1.2575 4.3737 -4.4815 -2.6132 5.8967 3.6630 2.3082 -3.9917 1.9234 3.9059 -4.5292 -3.3704 -0.7206 0.0882 -1.8904 -1.4047 -1.7000 2.5315 0.8618 2.9973 1.3588 0.6266 5.1074 0.8223 -0.8350 3.2572 -3.3137 -1.8770 5.8480 0.5396 -1.3288 -4.0047 -0.4991 1.9452 -1.6486 -0.3294 1.8108 -0.1538 0.7670 1.6446 -2.4138 0.0471 0.4095 0.2234 1.2428 0.2765 -2.3685 1.4080 -0.0058 0.0021 -0.4495 -1.1539 5.3523 2.5273 2.9344 -3.6301 -2.1145 -0.8491 -0.3778 1.7997 -0.1225 2.4455 -2.5223 -2.4340 4.9836 1.8966 -0.3072 -1.2773 0.5763 -0.4546 4.5249
-0.8805 3.0669 -1.4699 -2.0039 1.1287 0.1118 0.1943 -0.2903 5.6304 2.3897 -1.5927 -2.4895 -0.0385 1.7428 -5.6371 0.6725 0.8150 -6.5741 1.6095 0.3609 -4.2349 1.8955 2.2822 -1.5321 -1.5061 -1.2974 -1.4702 1.2940 -2.0940 -0.0569 -1.4337 -0.9260 4.1017 -4.0817 -0.5748 4.0396 -4.8563 -0.5190 5.6009 4.5770 4.4443 -4.0901 -4.4705 -3.0976 1.0574 5.0318 3.3769 -3.4096 3.1900 4.8522 -3.9573 -4.8590 -2.3741 -0.0079 -3.0576 -3.2822 1.3323 3.2742 -1.6070 3.1489 -3.9261 -0.6490 6.5620 4.1352 2.6342 -2.5411 2.3618 4.1712 -3.1453 -3.8657 -1.7717 -0.8794 -2.1394 -2.7505 0.5075 2.9612 -1.7882 1.7441 2.2900 -1.3628 4.0315 0.6334 -1.3641 2.2686 -2.6100 -0.8069 6.1770 0.4399 0.4049 -5.1514 -0.5926 1.6989 -1.7280 -0.7094 0.9268 -0.4372 0.7904 1.6029 -2.3175 -0.4887 -0.5484 -0.6341 1.1553 0.3133 -2.8615 0.8771 -0.9642 -0.8663 -0.1276 -0.7634 4.5425 2.8487 3.0094 -2.4168 -2.5546 -1.9405 -0.6283 1.6917 -1.6694 1.3140 -2.5588 -0.7816 4.8803 1.5356 -0.7901 -2.0919 0.9117 -1.2255 3.5781
-0.8873 2.9637 -1.1475 -2.1626 1.0228 0.3349 -1.7497 -0.6264 4.1091 2.1384 -1.8468 -2.2745 0.6346 0.7535 -6.3088 0.2825 -0.6803 -6.0472 1.5093 0.1884 -3.9723 1.8322 2.0661 -1.2661 -1.8447 -1.5881 -0.9550 0.9408 -2.3713 0.1102 -0.6272 -1.5654 5.9189 -0.8241 -1.6573 8.5700 -2.1275 -0.7249 9.2538 4.4028 4.4310 -3.7612 -4.5214 -0.6114 -4.1411 4.8268 3.2311 -3.3256 3.0851 4.9132 -3.3870 -3.3206 -1.1382 -4.4416 -4.8589 -0.3200 -2.7599 2.7413 -2.0491 3.4511 -2.7732 -0.0767 8.2694 3.9673 2.4208 -2.4810 2.2884 4.1633 -2.6038 -2.3724 -1.4392 -3.3824 -3.9733 -0.5806 -1.7826 2.5078 -2.1818 2.0236 1.7177 -1.7820 4.2821 0.1574 -1.7699 2.4276 -2.3331 -0.2546 6.9719 0.3634 0.2919 -4.9100 -0.6823 1.5931 -1.4630 -0.8801 0.7704 -0.2129 0.6990 1.4322 -2.0491 -0.7198 -0.6925 -0.4952 1.0175 0.1360 -2.6135 0.6162 -1.1922 -0.6746 -0.7796 -1.2078 4.5855 2.7404 2.8589 -2.1429 -2.6675 -1.1356 -2.1052 1.2683 -2.0274 1.5222 -1.3234 -1.0692 6.9964 1.3188 -1.0117 -1.8719 0.3728 -1.6362 3.7492
-1.2347 3.0933 -2.0543 -2.9335 1.5484 -0.5354 1.1513 -0.1615 6.4025 1.5841 -1.9389 -1.5210 0.5610 1.0620 -5.6119 1.3939 -0.0475 -6.1773 1.5701 -0.2150 -3.6293 1.3471 2.1054 -1.2637 -2.4838 -1.2733 -1.2611 -0.0597 -1.8106 0.6858 -0.7179 -1.3919 5.7906 -3.0252 -1.8459 7.0639 -2.9125 -1.8974 8.8040 4.8803 3.4431 -3.2984 -4.1930 -0.9195 -5.1556 4.9761 2.4692 -2.3757 3.5920 4.0516 -3.5787 -4.8006 -0.3153 -4.1190 -2.9076 -1.5671 -4.9649 2.9818 -0.7698 2.7265 -1.6374 -1.6857 9.1713 3.7895 2.0177 -1.6711 2.4935 3.6414 -2.9188 -4.2027 -0.3750 -2.7981 -2.3412 -1.5973 -3.7450 2.1290 -1.0791 1.6003 2.4623 -0.7392 3.9642 0.2318 -1.1643 3.1112 -0.6984 -1.4867 8.1791 0.7224 -0.2204 -4.8488 -1.0585 1.6830 -2.0268 -1.5847 1.1533 -0.7147 0.4082 1.3817 -2.2108 -1.4736 -0.3400 -0.6305 0.7497 -0.0060 -2.4545 -0.1576 -0.8877 -0.4331 0.5010 -0.7735 5.5569 2.5914 2.5685 -1.9399 -3.0062 -0.9653 -2.6172 0.8048 -1.2575 1.7697 -1.3006 -1.5375 7.0298 0.7741 -1.0044 -1.4737 1.0340 -0.9452 4.1738
-1.1186 3.0854 -1.2744 -2.6113 1.0553 -0.2095 1.3611 -0.6700 5.4429 1.9847 -1.6589 -2.4367 1.3862 1.5649 -6.2459 0.9848 0.1210 -6.2888 1.7552 0.6224 -3.8988 1.5566 2.0836 -0.9263 -1.9651 -1.1246 -2.0871 0.4440 -2.3774 -0.3077 -0.6968 -0.6563 4.3665 -3.0502 0.4630 4.9434 -3.3563 0.7020 6.6432 4.7892 4.3816 -2.5584 -5.6306 -2.7880 -0.6066 5.0513 3.2074 -1.9569 3.4234 4.8678 -2.6372 -5.6649 -1.9139 -1.6283 -4.3576 -3.1843 -0.0334 3.1557 -2.7612 2.3189 -2.3012 0.2638 7.3503 3.9669 2.4218 -1.3951 2.4199 4.1475 -2.1051 -4.4294 -1.3562 -2.1487 -3.2121 -2.6902 -0.5341 2.4797 -2.7423 1.0369 2.5423 -2.2622 3.4055 0.6173 -1.5995 2.0901 -1.2321 -0.2711 6.6609 0.8267 0.9055 -5.0220 -0.8612 1.7469 -1.6798 -1.2551 0.8164 -0.5585 0.6030 1.6272 -2.0135 -1.0989 -0.6307 -0.9433 1.0033 0.4075 -2.6819 0.2591 -1.1228 -1.0082 0.6563 -0.9417 4.4735 2.6993 2.8664 -1.4735 -3.2476 -1.7174 -1.6162 1.2581 -2.1890 0.9228 -1.4993 -0.2167 5.3920 1.1373 -0.8380 -2.0616 1.2270 -1.6449 3.2904
-1.1186 3.0854 -1.2744 -2.6113 1.0553 -0.2094 1.3610 -0.6700 5.4430 1.9847 -1.6588 -2.4367 1.3861 1.5649 -6.2459 0.9848 0.1210 -6.2887 1.7552 0.6224 -3.8988 1.5566 2.0837 -0.9263 -1.9651 -1.1246 -2.0871 0.4439 -2.3774 -0.3078 -0.6968 -0.6563 4.3664 -3.0502 0.4630 4.9434 -3.3563 0.7021 6.6431 4.7892 4.3816 -2.5584 -5.6306 -2.7880 -0.6066 5.0514 3.2074 -1.9569 3.4235 4.8678 -2.6372 -5.6650 -1.9139 -1.6283 -4.3576 -3.1844 -0.0334 3.1557 -2.7611 2.3188 -2.3011 0.2638 7.3503 3.9669 2.4218 -1.3950 2.4199 4.1475 -2.1051 -4.4294 -1.3563 -2.1487 -3.2121 -2.6901 -0.5341 2.4797 -2.7422 1.0369 2.5423 -2.2621 3.4054 0.6172 -1.5996 2.0902 -1.2321 -0.2710 6.6609 0.8267 0.9054 -5.0220 -0.8612 1.7469 -1.6798 -1.2551 0.8163 -0.5585 0.6030 1.6272 -2.0135 -1.0989 -0.6307 -0.9432 1.0033 0.4075 -2.6818 0.2591 -1.1227 -1.0082 0.6563 -0.9417 4.4734 2.6991 2.8664 -1.4735 -3.2476 -1.7174 -1.6162 1.2582 -2.1891 0.9228 -1.4993 -0.2167 5.3920 1.1373 -0.8381 -2.0616 1.2271 -1.6450 3.2905
-0.7199 2.7725 -1.1932 -1.5502 1.0012 0.7551 0.0839 -1.8477 6.3177 2.5974 -1.9256 -2.0275 -0.5181 0.9631 -4.9680 0.1433 0.1675 -6.0505 1.4883 -0.2503 -3.9047 2.0356 2.1415 -1.7066 -1.0712 -1.7655 -0.0309 1.8723 -2.0720 0.6078 -1.3522 -1.1960 4.6086 -4.0107 -1.0680 4.4469 -4.8126 -0.4611 5.8706 3.2632 4.7925 -4.8584 -4.3748 -1.6257 -2.7304 4.0290 3.7280 -4.5582 2.0125 5.0036 -4.1529 -4.5851 -1.4420 -1.4147 -3.0232 -1.7951 -3.2356 3.3716 -0.8147 3.8815 -3.8957 -0.1920 6.8153 3.6152 2.8059 -3.5133 1.6291 4.1496 -3.1870 -3.4634 -1.4567 -0.4958 -1.9826 -1.8064 -2.3834 3.2253 -1.1799 2.4844 2.3129 -0.8645 4.7091 0.8963 -1.6805 2.9199 -2.5658 -0.4164 6.5164 0.1917 -0.3184 -4.6330 -0.4045 1.3929 -1.3108 -0.3271 0.7882 0.0705 0.8822 1.2367 -2.0811 -0.0319 -0.6764 -0.0143 1.2542 -0.1038 -2.4824 1.3143 -1.0791 -0.3028 -0.1119 -1.4883 5.1600 2.4584 3.0011 -2.8524 -2.2106 -1.6058 -0.9625 2.0258 -1.5519 2.0003 -2.4947 -0.8792 5.3062 1.7863 -1.0813 -1.6275 1.0174 -1.3000 4.2074
-0.5571 2.9534 -1.0962 -1.3258 1.2619 0.9160 0.1630 -1.6272 6.3389 2.4689 -1.9069 -2.0952 0.1647 -0.9202 -6.0304 0.4061 -2.1479 -5.2048 1.4201 -0.1733 -3.9244 2.1298 2.1523 -1.7116 -1.2140 -1.5116 -0.0033 1.7312 -2.1175 0.5142 -1.3080 -1.4207 4.5550 -3.9713 -1.4234 4.4126 -4.7838 -0.5446 5.6806 3.0280 5.2221 -4.5772 -4.5437 -1.0866 -2.6406 2.2235 5.5114 -3.5389 3.5694 3.8824 -4.7222 -4.6007 -0.5348 -1.4154 -3.3258 -1.7400 -3.0879 3.4482 -1.1019 3.7595 -3.8677 -0.0284 6.5176 1.9077 4.4866 -2.5592 3.2709 2.9314 -3.8186 -3.4626 -0.6417 -0.5235 -2.2618 -1.8187 -2.2682 3.2254 -1.3801 2.3525 2.4198 -1.1278 4.6261 0.8791 -1.7121 2.8544 -2.5325 -0.2597 6.2483 0.2293 -0.8163 -4.5375 -0.3284 1.5596 -1.2489 -0.1979 0.9412 0.1213 0.9059 1.3423 -2.0954 -0.0616 -0.5416 -0.0060 1.2045 -0.0198 -2.5016 1.2300 -1.0592 -0.3498 -0.0496 -1.5035 5.1351 2.3937 3.2389 -2.6997 -2.3272 -1.2307 -0.9408 1.9841 -1.6431 1.9049 -2.4555 -0.9848 5.1748 1.6984 -1.0362 -1.6700 1.0733 -1.4231 4.1557
-0.6699 3.2091 -1.5517 -2.4738 1.4900 -0.4439 1.2219 -1.8690 5.6606 1.7220 -2.0026 -2.3499 1.8754 0.1650 -6.4235 1.7190 -1.2484 -5.9508 1.9726 0.2132 -3.8711 1.8451 1.8396 -1.0536 -2.1064 -0.8600 -2.1750 0.0250 -2.3805 -0.2648 -0.6937 -1.1272 4.5827 -2.9901 -0.1633 5.5242 -2.8366 0.9127 6.8869 4.3396 5.1703 -2.1096 -6.0289 -1.8904 -0.7766 3.5932 5.2309 -0.9922 4.2824 3.9924 -2.9556 -5.8963 -1.0546 -1.8221 -4.8507 -2.4714 -0.1591 3.0403 -2.8330 2.0172 -1.5367 1.0537 7.1974 2.7322 4.1178 -0.6313 3.4954 2.9572 -2.6141 -4.5739 -0.7130 -2.3155 -3.6277 -2.1774 -0.6340 2.2167 -2.7784 0.8258 2.5252 -2.4694 3.2041 0.3912 -1.9430 2.1821 -0.6070 0.3742 6.4359 1.2192 -0.1151 -5.1057 -0.5890 1.8249 -1.8656 -1.1563 1.0298 -0.7152 0.8507 1.4769 -2.1397 -1.2124 -0.4446 -1.0203 1.0943 0.1758 -2.7232 0.0563 -1.1394 -1.0158 0.5821 -1.6660 4.6310 2.6714 3.0262 -1.4162 -3.4786 -1.2367 -1.7347 0.9530 -2.3204 0.8958 -1.2453 -0.3082 5.5355 1.0018 -1.0424 -2.0440 1.1472 -2.0052 3.2953
-0.0128 2.9243 -3.7254 -2.5395 2.4747 -2.7917 1.2928 0.0814 5.8710 0.5906 -1.7753 -0.4006 2.0311 -0.5051 -5.1131 2.9343 -1.6769 -4.8829 1.9955 -1.0366 -2.5990 1.5742 2.0458 -1.4589 -2.5455 -0.4524 -2.5354 -1.6319 -0.5669 0.5903 0.6980 -1.9271 4.8727 1.4690 -4.4179 5.4342 1.5561 -4.8008 7.1330 5.8547 1.9403 -1.7915 -6.7824 0.1114 -2.9104 5.2668 1.5230 -0.6558 5.0395 2.4328 -2.8874 -6.0239 0.0204 -4.0173 -6.1659 0.0236 -1.5989 -1.0325 2.2340 3.1167 1.1892 -3.7240 7.8487 3.8202 1.5586 -0.5297 3.7005 2.4796 -2.7664 -4.5898 -0.1729 -3.8995 -4.8405 -0.1754 -1.4895 -1.4674 1.5335 1.9238 -0.3653 1.5749 4.0801 -0.4098 -0.4708 2.7825 0.8273 -2.5788 7.1664 1.7431 -1.4683 -3.9972 -0.3215 1.6660 -3.1402 -1.4445 1.8390 -2.1464 0.9193 1.1327 -2.4774 -1.9067 0.5241 -1.5644 0.8786 -0.2629 -2.1033 -0.9963 -0.1218 -0.6360 0.7183 -0.5444 4.9828 3.0620 2.0122 -1.5446 -4.0156 -0.2637 -2.6855 -1.1502 0.2375 1.7480 0.9473 -2.8106 5.8951 0.1808 -0.7797 -1.0122 -0.0471 0.1624 3.9154
-1.4155 2.9570 -1.3562 -3.0194 1.0705 -0.1420 1.6445 -0.5231 6.0085 1.6478 -1.9419 -1.7703 1.2113 0.6909 -6.0181 0.9785 -0.7841 -5.8855 1.5068 0.1106 -3.5464 1.2269 1.9691 -0.8239 -2.4477 -1.5566 -1.3620 0.0120 -2.2909 0.4302 -0.5435 -0.9770 5.3774 -2.9064 -0.3918 6.4759 -2.8988 -0.2429 8.2131 4.4587 4.0025 -2.7709 -4.2578 -0.5998 -5.1107 3.3001 4.6597 -2.5826 4.6144 2.6481 -2.2722 -4.8725 -0.2283 -3.9737 -2.9434 -1.2141 -5.0557 3.1737 -2.2109 2.5284 -1.6534 -0.4556 8.6710 2.1950 4.0041 -1.9042 3.5999 2.0486 -1.6248 -4.2451 -0.4969 -2.6928 -2.3530 -1.4413 -3.8684 2.2834 -2.3105 1.3920 2.6870 -1.8392 3.7236 0.4719 -1.5068 2.7929 -0.6627 -0.7430 7.7536 0.6400 0.1336 -4.7499 -1.1806 1.5763 -1.6019 -1.6571 0.7864 -0.4068 0.2929 1.3814 -1.8662 -1.4694 -0.6864 -0.6052 0.6942 0.0741 -2.3502 -0.1279 -1.1898 -0.5045 0.8290 -0.9320 5.1840 2.3313 2.7409 -1.4593 -3.0196 -1.0517 -2.6365 0.9875 -1.9650 1.5073 -1.1897 -0.7302 6.5674 0.7928 -1.0742 -1.5536 1.2840 -1.4698 3.8692
-1.4867 2.9380 -1.1871 -2.9134 0.9860 0.1305 1.5841 -1.4980 6.2083 1.7322 -1.8134 -1.9041 0.9259 0.3419 -6.1308 1.1523 -1.0956 -5.7707 1.3933 0.2560 -3.6178 1.2245 1.9881 -0.8153 -2.3741 -1.5857 -1.2017 0.2562 -2.3221 0.3467 -0.5224 -1.3042 5.2573 -2.9254 -1.1186 6.3877 -3.0176 -0.0496 7.7611 4.3889 4.1656 -2.7232 -4.4473 -0.5849 -4.8037 4.5515 2.8540 -2.4737 3.1676 4.8351 -2.3116 -5.0062 -0.2816 -3.6188 -3.1173 -1.1650 -4.8473 3.3895 -1.8421 2.4558 -1.8091 0.4963 7.9803 3.5042 2.1106 -1.7977 2.1890 4.1430 -1.7001 -4.2891 -0.5601 -2.3877 -2.4452 -1.4013 -3.7060 2.5222 -2.0235 1.3095 2.8576 -1.6533 3.6750 0.6102 -1.7486 2.7718 -0.7721 0.1468 7.1378 0.5543 -0.1565 -4.7673 -1.2123 1.5706 -1.4615 -1.5683 0.7473 -0.2460 0.2443 1.4390 -1.8389 -1.3602 -0.7182 -0.4890 0.6412 0.1553 -2.3866 -0.0013 -1.1884 -0.5223 0.8536 -1.4625 5.2209 2.3530 2.7190 -1.4560 -3.0413 -1.0649 -2.4236 1.1854 -1.9488 1.4494 -1.2283 -0.7040 6.2704 0.8449 -0.9987 -1.6197 1.4117 -1.6028 3.8458
-0.7076 2.6875 -1.1044 -2.1963 0.7832 0.2107 -1.8732 -2.0158 4.4928 1.9747 -2.3188 -2.3152 0.2295 1.4698 -5.3613 0.8661 0.4967 -6.3062 1.6189 -0.1471 -3.9405 1.9797 1.6376 -1.1938 -1.9341 -1.8177 -1.1530 0.7336 -2.7369 0.0918 -0.2746 -0.9487 5.8126 -0.2179 0.1581 8.2304 -1.7007 0.9218 8.7339 3.8528 4.9941 -3.1144 -4.4607 -0.4796 -4.3329 2.8292 5.2100 -2.2689 4.3072 3.6386 -3.3689 -4.8421 -0.2788 -3.0590 -3.1772 -1.0972 -4.6164 2.6799 -2.6100 3.3524 -2.6301 0.7599 7.7767 2.1851 4.0877 -1.6092 3.7045 2.5986 -2.7641 -3.9796 -0.7028 -1.9723 -2.3680 -1.4687 -3.6076 2.3732 -2.6991 1.9370 1.7160 -2.2848 4.2306 0.1045 -2.0107 2.4366 -2.2758 0.0748 6.6303 0.5169 0.0664 -4.9140 -0.5706 1.3210 -1.4669 -0.8994 0.4699 -0.2659 0.8222 1.0815 -1.9984 -0.8060 -0.9894 -0.5857 1.0787 -0.2123 -2.5995 0.5112 -1.5474 -0.7094 -0.7224 -1.6435 4.6951 2.5871 2.8275 -1.8604 -2.7696 -1.2325 -2.2305 1.1425 -2.3939 1.4845 -1.0370 -0.2913 6.7476 1.2434 -1.4131 -1.8965 0.3859 -1.9446 3.7522
-0.6645 2.8921 -0.8547 -1.9808 0.8255 0.3324 0.7553 -1.0575 5.3584 2.1156 -1.8105 -2.7810 -0.2488 1.3927 -5.5748 0.7985 0.8210 -6.4817 1.6568 0.5383 -4.0837 2.0162 1.8587 -1.0785 -1.7510 -1.2732 -1.7211 0.8892 -2.6670 -0.5195 -0.7924 -0.3905 3.7595 -2.7086 1.4656 3.7063 -3.3780 1.8840 5.2600 4.2132 5.2313 -2.5590 -5.1131 -2.8254 0.4473 4.7560 4.0037 -2.6480 2.8861 5.3977 -1.9949 -5.3134 -1.9233 -0.5301 -3.7702 -3.2929 0.7387 2.5461 -3.7401 2.7133 -2.7640 1.1655 6.2151 4.0206 2.8466 -2.1677 2.2068 4.3275 -1.5463 -4.1849 -1.4058 -1.2832 -2.7290 -2.8364 0.0210 2.2802 -3.5501 1.3002 1.8655 -3.0271 3.6271 0.6771 -1.8383 1.8867 -1.7815 0.2751 5.8304 0.6137 0.2593 -5.1042 -0.5076 1.5815 -1.3847 -0.7162 0.5909 -0.2680 0.8695 1.4633 -1.9878 -0.6679 -0.8284 -0.7595 1.1317 0.2691 -2.7619 0.6446 -1.3474 -1.0693 0.2968 -1.1171 4.2195 2.7903 2.9984 -1.6440 -2.9377 -1.8341 -1.0144 1.3791 -2.6375 0.8895 -1.6539 0.3434 4.5406 1.3535 -1.0058 -2.2291 0.9010 -2.0225 3.2012
-1.0725 2.8376 -0.9848 -2.7539 0.9870 0.1408 1.8676 -0.8710 5.6927 1.5343 -2.2559 -1.9970 1.0743 0.0114 -6.0863 1.2193 -1.4258 -5.6853 1.5337 -0.0233 -3.5659 1.5295 1.6297 -0.7221 -2.5222 -1.5433 -1.3157 -0.0780 -2.6742 0.2059 -0.3092 -0.6300 4.9263 -2.2977 0.8761 5.8699 -2.4563 0.8902 7.6062 3.8771 4.9194 -2.1696 -4.4934 -0.0093 -4.7844 2.7070 5.1721 -1.5563 4.3277 3.5485 -2.3328 -3.3654 -0.7250 -4.9433 -4.9722 0.3019 -3.4501 2.8698 -3.3457 2.4896 -1.4985 0.1162 8.1446 1.9020 4.0741 -1.0515 3.5774 2.5308 -1.8732 -2.6503 -1.2234 -3.7805 -4.3016 -0.1466 -2.3749 2.0213 -3.2950 1.3176 2.5106 -2.6888 3.6049 0.5270 -1.8109 2.5211 -0.6191 -0.5217 7.2919 0.6761 -0.4252 -4.7097 -0.9499 1.4746 -1.3689 -1.4368 0.6172 -0.2271 0.4898 1.1878 -1.7354 -1.3991 -0.8283 -0.6029 0.7739 -0.1032 -2.3371 -0.1195 -1.4708 -0.6007 1.0001 -1.0770 4.8464 2.3062 2.8010 -1.2205 -3.0797 -0.9184 -2.5422 0.8997 -2.5518 1.3210 -0.9282 -0.1964 6.0740 0.7821 -1.3325 -1.6608 1.2970 -1.8820 3.6263
-0.9727 2.4711 -0.4463 -2.0417 0.2902 0.8555 1.1342 -0.8174 5.8139 2.1618 -2.0218 -2.3766 -0.6332 0.8782 -5.2581 0.3348 0.1500 -6.1408 1.3376 0.1824 -3.7774 1.7632 1.7279 -0.8879 -1.7262 -2.1322 -0.7351 1.1343 -2.8480 0.0355 -0.5504 -0.3925 4.2756 -2.5374 1.3897 4.2770 -3.2280 1.7315 5.8413 3.4579 5.1921 -2.7717 -4.6976 -0.9200 -3.5567 3.8989 3.9722 -3.1276 2.4083 5.3193 -1.7764 -3.5336 -1.4148 -4.0153 -4.8995 -0.7435 -2.1303 3.0514 -3.4673 3.2376 -2.5882 1.0060 6.7742 3.3368 2.7859 -2.5055 1.8802 4.2207 -1.2075 -2.4923 -1.8084 -3.0817 -3.9320 -1.0972 -1.2671 2.6825 -3.4290 1.8369 2.3629 -2.7413 4.1340 0.9451 -1.8393 2.3919 -1.5714 0.1657 6.3643 0.2311 -0.2069 -4.6886 -0.7393 1.1677 -0.9635 -0.8031 0.1850 0.1794 0.5999 1.1456 -1.6685 -0.6099 -1.2062 -0.3282 0.9424 -0.0594 -2.4058 0.7307 -1.6170 -0.6147 0.6303 -0.9803 4.7043 2.3543 2.9008 -1.5925 -2.6698 -1.6240 -1.7610 1.6720 -2.6459 1.4139 -1.4413 0.2826 5.0779 1.3432 -1.2747 -1.8269 1.2737 -1.8773 3.6987
-1.1263 3.1003 -0.8444 -2.8312 1.0774 -0.1463 1.1378 -1.7583 5.3776 1.6794 -1.6834 -2.4893 1.4521 1.4008 -6.1020 1.4465 -0.0958 -6.0209 1.7037 0.7786 -3.6338 1.4418 1.8193 -0.5013 -2.2499 -0.9196 -2.2067 -0.0095 -2.5512 -0.5393 -0.3980 -0.5636 4.1126 -2.2800 1.1923 4.7934 -1.8302 2.3053 6.0572 4.8417 4.2415 -1.4824 -5.9706 -2.7176 -1.0468 5.0234 2.9458 -1.1704 3.5037 4.8053 -1.4900 -5.9706 -1.7108 -1.9389 -4.7153 -3.2093 -0.5093 2.6818 -3.5920 1.9354 -0.5675 2.0536 6.4424 3.8814 2.1120 -0.8394 2.4462 4.0359 -1.1754 -4.7170 -1.1022 -2.3485 -3.5534 -2.6652 -0.9106 1.9482 -3.4087 0.6978 2.2619 -2.9869 3.0600 0.3949 -1.9813 1.8883 0.1140 1.0298 5.8146 0.9070 0.7188 -4.8841 -0.9440 1.8077 -1.4091 -1.4727 0.7783 -0.4394 0.5237 1.6159 -1.6921 -1.3922 -0.6207 -0.9912 0.8631 0.4654 -2.5000 -0.0706 -1.2037 -1.0710 0.6256 -1.4806 4.2960 2.6398 2.6311 -0.8508 -3.5517 -1.5480 -1.8443 0.8589 -2.6190 0.6664 -0.6814 0.4933 4.9412 0.8753 -0.8548 -2.0426 1.0800 -2.1358 3.0373
-1.4218 2.8420 -0.9085 -3.2365 0.8295 -0.3306 -1.5851 -1.4806 4.7743 1.4411 -2.0560 -2.0972 1.3397 1.3832 -5.7841 0.9467 -0.0547 -5.9468 1.4911 0.2965 -3.4723 1.1745 1.6821 -0.4826 -2.6038 -1.5992 -1.8471 -0.3129 -2.6995 -0.0819 0.5057 -0.9559 5.6647 1.4070 0.0317 7.9637 0.3509 1.1766 8.7442 4.7824 3.5954 -1.8187 -4.2954 0.1803 -5.3519 4.7833 2.2696 -1.5932 3.5721 4.3664 -1.5946 -2.9784 -0.0936 -5.3387 -5.1039 -0.0977 -4.1789 2.1953 -3.3810 2.6846 -0.7725 1.3107 8.0185 3.5757 1.6138 -1.1242 2.4480 3.7561 -1.1753 -2.3712 -0.6831 -4.1578 -4.5343 -0.6142 -3.0757 1.5847 -3.2953 1.3719 1.5948 -2.8086 3.7421 -0.1820 -1.9407 2.3304 -0.8881 0.5802 6.8521 0.6744 0.6559 -4.6564 -1.2213 1.5304 -1.4190 -1.8539 0.5442 -0.4661 0.2578 1.3089 -1.6339 -1.6684 -0.8765 -0.9044 0.6316 0.0909 -2.3277 -0.3502 -1.4341 -0.7877 -0.3609 -1.4605 4.7036 2.4423 2.3191 -0.9470 -3.1054 -0.8871 -3.0492 0.4520 -2.5905 1.1905 0.1895 -0.1284 6.7138 0.6300 -1.1870 -1.7555 0.3755 -2.0392 3.5524
-0.1112 3.4608 -1.9381 -2.5446 2.3834 -1.3199 -0.6317 0.0541 5.6158 0.9896 -2.1990 -1.5588 2.5441 -0.7266 -5.7060 2.0156 -2.0224 -5.1685 2.1144 -0.3681 -3.2167 1.7076 1.6509 -0.6339 -2.3704 -0.2459 -2.6687 -1.2210 -1.8991 -0.0821 0.9975 -1.1116 4.4402 3.5924 -1.4862 4.8963 4.0163 -1.8009 6.5565 5.8968 2.3958 -1.2085 -6.6064 0.4518 -2.7599 5.5034 1.2491 -0.6258 4.9046 3.3605 -1.6476 -5.8445 0.8456 -3.7961 -5.9996 -0.2278 -1.6292 -3.5392 -1.1064 2.8177 2.9018 -1.7990 7.3075 4.0890 0.9816 -0.4308 3.5946 3.1145 -1.4651 -4.4131 0.6012 -3.7765 -4.6784 -0.4793 -1.6252 -3.0570 -1.3956 1.4822 -2.6649 -0.9243 3.8224 -0.7893 -1.1789 2.3047 1.6932 -1.5679 6.6801 1.5844 -0.7231 -4.5565 -0.3225 2.0671 -2.1332 -1.3748 1.5930 -1.1577 0.9921 1.3562 -1.9398 -1.7318 0.1391 -1.3459 1.0225 -0.0352 -2.3299 -0.7239 -0.8088 -0.8981 -0.2792 -0.6117 4.6458 3.1671 1.8731 -0.8387 -3.8444 -0.0250 -2.7289 -1.7362 -1.4242 1.2285 1.9246 -1.3764 5.4177 0.4656 -1.0770 -1.5871 -1.2333 -0.9575 3.5577
-1.4749 2.8505 -0.6331 -3.0476 0.6714 -0.1095 0.9734 -1.4521 5.3852 1.7837 -1.6179 -2.3183 1.5328 2.3000 -5.4964 1.2243 0.8905 -5.9023 1.6588 0.8718 -3.3810 1.1597 1.7450 -0.2140 -2.1786 -1.1324 -2.2871 0.0519 -2.7004 -0.5065 -0.1728 -0.1169 3.8695 -1.6788 2.0546 4.1652 -1.1017 3.2015 5.3440 4.8867 3.5148 -1.3437 -6.0126 -2.9355 -1.6098 3.7758 4.2727 -1.3761 4.8216 2.1506 -0.8510 -5.8934 -1.9497 -2.5175 -4.8398 -3.4118 -0.8994 2.3402 -3.9174 2.2694 0.0461 2.7505 5.8786 2.5054 3.7164 -0.9462 3.6481 1.6380 -0.4404 -4.5973 -1.3432 -2.7654 -3.6351 -2.8709 -1.1513 1.7317 -3.7341 0.9654 1.9822 -3.1252 3.2947 0.4155 -1.9267 1.8884 0.5408 1.5398 5.4347 0.8630 1.3705 -4.5293 -1.1688 1.6061 -1.2495 -1.6612 0.4896 -0.3602 0.3212 1.5361 -1.4636 -1.4508 -0.8672 -0.9814 0.7822 0.4528 -2.3088 -0.0841 -1.3435 -0.9972 0.6109 -1.1996 4.2389 2.4390 2.4422 -0.5178 -3.5107 -1.7705 -2.0961 0.8166 -2.7663 0.7698 -0.2824 1.0704 4.5488 0.8853 -0.8792 -1.8954 0.9935 -2.0751 3.0959
-1.7215 2.6849 -0.7394 -3.2051 0.5247 0.1147 1.6821 -1.6445 5.8783 1.6466 -1.8689 -1.9487 1.2530 0.5687 -5.8886 1.1313 -0.8756 -5.5064 1.3923 0.4500 -3.3343 0.9777 1.7840 -0.3463 -2.4628 -1.8370 -1.4818 0.0410 -2.7145 0.1160 -0.2514 -0.8687 4.8578 -2.3927 0.4043 5.7959 -2.0650 1.6159 7.0050 4.2035 4.2014 -1.8124 -4.4953 -0.2604 -4.8989 4.4753 3.0220 -1.2255 2.8299 4.6609 -1.9140 -5.1829 -0.4732 -3.7628 -3.0643 -0.5026 -4.9340 3.1538 -3.1230 2.2543 -0.7403 1.6776 7.2237 3.3938 2.2009 -0.7111 1.8286 3.9089 -1.4230 -4.4957 -0.9619 -2.5808 -2.4288 -0.9487 -3.8358 2.2592 -3.1200 1.1147 2.7459 -2.6084 3.4266 0.5886 -2.0252 2.4877 0.0805 0.8323 6.5032 0.6298 0.1909 -4.5796 -1.3961 1.3816 -1.2066 -1.8233 0.3756 -0.1647 0.0863 1.3296 -1.4880 -1.5380 -1.0313 -0.5970 0.5715 0.1529 -2.1799 -0.1656 -1.4603 -0.5845 0.9814 -1.5014 4.8786 2.1186 2.6171 -0.8187 -3.1642 -1.1593 -2.6010 1.0349 -2.5699 1.2136 -0.6681 0.1060 5.7310 0.7408 -1.1055 -1.5902 1.4146 -2.0299 3.5530
-0.6240 2.8794 -0.8452 -2.4362 0.9630 -0.1123 -0.5425 -1.8448 5.5142 1.8974 -2.0514 -2.4806 0.9269 2.4102 -4.8346 1.8778 1.7928 -5.8128 1.9919 0.3710 -3.6940 1.9058 1.4879 -0.5955 -1.9609 -1.0974 -2.1932 0.3368 -2.7819 -0.4321 0.4168 -0.3122 4.0533 1.8086 1.9280 4.4113 1.3204 2.8934 5.7777 5.2351 3.8462 -1.9173 -6.0714 -1.8769 -1.2168 4.1213 4.4702 -1.4935 5.3046 2.3961 -1.9024 -5.7752 -1.0342 -2.2225 -5.0039 -2.5439 -0.4943 -1.9061 -4.1637 2.2990 0.2896 2.2951 6.3989 2.9864 3.6932 -1.0268 4.2586 1.6760 -1.4591 -4.3882 -0.7754 -2.5695 -3.7219 -2.3258 -0.8363 -1.2479 -3.9610 1.0242 -1.6218 -3.3553 3.3342 0.0046 -2.1378 2.0091 -0.1778 1.1013 5.8854 1.1802 0.9302 -4.8041 -0.5300 1.5767 -1.4068 -1.1058 0.5796 -0.4305 0.9142 1.2983 -1.7269 -1.1091 -0.8344 -0.9623 1.1621 0.1248 -2.5341 0.2030 -1.4637 -1.0297 -0.2549 -1.4822 4.3761 3.0449 2.3487 -1.0214 -3.3941 -1.3815 -1.8937 -0.3684 -2.9550 0.8645 0.5456 0.7973 4.8522 1.1353 -1.1807 -2.0402 -0.6281 -2.3000 3.1883
0.0745 3.1723 -1.4492 -2.3359 2.1143 -0.7529 -0.8364 -0.4307 5.4616 0.8822 -2.5267 -2.0147 2.6276 -0.0307 -5.8088 1.4730 -0.9866 -5.7959 2.0686 -0.5024 -3.3564 1.8542 1.0638 -0.4624 -2.4063 -0.2650 -2.4853 -1.1841 -2.3714 -0.3064 0.9248 -0.6303 3.9624 3.4992 0.0118 4.0811 4.2850 -0.3513 5.5934 5.5174 3.2679 -0.7738 -6.6415 0.2261 -2.0109 5.4268 2.0690 -1.3770 4.3860 3.7941 -0.0309 -5.9989 -0.6399 -1.2072 -5.9083 0.9359 -3.0438 -3.4574 -2.2505 2.7401 3.4020 -0.9286 6.4263 4.2021 1.2971 -1.2716 3.2457 3.0859 0.0542 -4.5726 -0.8544 -1.3684 -4.5839 0.7475 -3.1834 -2.9792 -2.4336 1.3838 -2.6325 -1.7616 3.6818 -0.8307 -1.5590 2.0722 2.1107 -1.1227 5.9765 1.6384 0.0033 -4.6832 -0.2048 1.8203 -1.7849 -1.2013 1.2608 -0.7994 1.0862 1.0458 -1.7697 -1.6470 -0.1290 -1.1789 1.0298 -0.2648 -2.3779 -0.6735 -1.1848 -0.9713 -0.3899 -0.7832 4.3729 3.1435 1.7938 -0.6049 -3.8819 -0.1691 -2.2991 -1.7221 -2.0861 1.0520 2.0338 -0.6561 4.7687 0.4410 -1.3903 -1.7970 -1.2646 -1.4010 3.3383
-0.1683 3.4762 -1.7731 -2.6286 2.6894 -0.8215 -0.9384 -0.8633 6.4583 0.3635 -2.2600 -1.2362 1.6086 -1.1892 -5.6158 0.9090 -2.3347 -4.9489 1.4667 -0.6357 -3.1216 1.5554 1.4983 -0.6001 -3.1686 -0.0278 -1.8168 -1.6478 -1.6144 0.4736 0.7243 -1.6180 5.0266 3.0848 -2.7928 5.4318 3.8715 -2.3787 6.9318 5.7099 1.3857 -1.6528 -3.6368 1.2645 -5.8646 5.2123 0.4463 -0.8287 4.8482 2.4409 -2.1552 -2.8331 0.2177 -5.6041 -4.2490 1.9963 -4.7707 -3.4720 0.1294 3.3209 3.1028 -1.5106 7.6109 3.8105 0.4809 -0.4522 3.5529 2.4823 -1.7950 -2.6174 -0.2092 -4.2324 -4.0299 1.6144 -3.5001 -3.1365 -0.3644 2.0028 -2.6239 -0.0725 4.3423 -1.0393 -1.1972 2.8919 1.9065 -1.1181 7.0441 0.7736 -0.9479 -4.3953 -0.5562 2.1139 -1.8937 -1.5366 1.7877 -0.7926 0.6833 1.2538 -1.8194 -2.0277 0.3768 -0.9132 0.5153 -0.1486 -2.1469 -1.1247 -0.6663 -0.4964 -0.5194 -1.0818 5.3228 3.0072 1.4510 -0.9259 -3.1666 0.4778 -3.2142 -1.9504 -0.9609 1.7783 1.7763 -1.7289 5.9061 -0.0520 -1.0953 -1.2843 -1.3594 -0.7674 4.1296
-0.1891 3.5885 -2.2029 -2.7354 2.6170 -1.9883 1.7752 -0.4592 3.1699 0.5711 -2.0986 -1.4712 2.9714 -0.9367 -5.2236 2.2534 -2.1480 -4.7110 2.0783 -0.3508 -2.9024 1.3129 1.7884 -0.5167 -2.5192 -0.0894 -3.0500 -1.8191 -1.6278 -0.3155 0.8380 -1.3048 5.1291 1.5603 -1.4385 7.6840 3.2789 -1.4437 7.9700 5.6034 1.9084 -0.3258 -6.7744 0.2922 -3.4662 4.9328 0.9833 0.3839 4.8726 2.8630 -1.1400 -5.9634 0.8320 -4.3935 -6.2094 -0.4363 -2.3440 -2.9176 -1.0375 3.2851 3.9245 -1.3363 6.7961 3.4822 0.9354 0.3279 3.5282 2.8270 -1.1825 -4.5236 0.6987 -4.2623 -4.8761 -0.5759 -2.2324 -2.9597 -1.2041 1.8432 -1.7363 -0.9883 3.9252 -0.5412 -1.3184 1.8401 3.1710 -1.2578 5.6417 1.8038 -0.7781 -4.2966 -0.4225 2.1932 -2.3567 -1.6438 1.8159 -1.5520 0.8108 1.4536 -1.9103 -2.0213 0.3620 -1.6902 0.8541 0.0477 -2.2412 -1.1302 -0.5979 -1.0710 0.8278 -0.9259 3.7942 2.8017 1.8138 -0.4315 -3.9950 0.0372 -3.2161 -1.8173 -1.3222 1.1412 1.9183 -1.3005 5.9756 0.1265 -0.9484 -1.5852 -0.5023 -1.1321 3.1718
0.2082 3.1488 -3.0398 -2.4183 2.8000 -2.4019 0.9021 0.2828 5.6326 0.1367 -2.0128 -0.4308 2.5034 -2.5109 -4.3612 1.6594 -3.3864 -3.4853 1.8169 -1.1003 -2.3502 1.4585 1.7957 -0.8112 -2.6118 -0.1447 -2.6981 -2.1113 -0.8192 0.4669 1.3116 -1.4559 4.1501 3.3059 -3.2142 3.9886 3.8812 -3.8252 5.5167 5.7462 1.6857 -0.8518 -6.5970 0.9965 -3.8121 5.0748 0.9402 0.0442 5.0175 2.5185 -1.7920 -5.6570 0.8478 -4.7625 -6.2607 0.7699 -2.4180 -2.5851 1.3501 3.5572 3.1584 -3.2822 6.5114 3.6234 0.9708 0.0727 3.6730 2.5524 -1.7628 -4.3073 0.4603 -4.3927 -5.0169 0.3876 -2.0779 -2.7685 0.7855 2.2338 -1.5516 0.9560 4.3218 -0.7452 -0.5052 2.5662 2.1531 -2.3952 6.1792 1.4147 -1.9074 -3.5279 -0.2494 1.8444 -2.7053 -1.4482 1.9597 -1.7936 0.8798 1.1075 -2.0341 -2.0706 0.6159 -1.4990 0.6975 -0.3179 -1.8762 -1.3162 -0.2340 -0.5941 0.6055 -0.3623 4.6296 2.9461 1.7401 -0.7992 -3.9924 0.2436 -3.1019 -1.8796 -0.1001 1.7490 2.1426 -2.2626 4.8883 -0.1430 -0.9171 -0.9360 -0.5862 -0.0062 3.8074
0.2081 3.1488 -3.0398 -2.4183 2.8000 -2.4020 0.9021 0.2828 5.6326 0.1368 -2.0127 -0.4308 2.5034 -2.5109 -4.3612 1.6595 -3.3864 -3.4852 1.8168 -1.1003 -2.3503 1.4585 1.7957 -0.8111 -2.6118 -0.1447 -2.6980 -2.1113 -0.8192 0.4668 1.3115 -1.4558 4.1501 3.3059 -3.2143 3.9886 3.8811 -3.8252 5.5167 5.7462 1.6857 -0.8518 -6.5971 0.9965 -3.8121 5.0748 0.9402 0.0443 5.0175 2.5185 -1.7920 -5.6571 0.8478 -4.7625 -6.2607 0.7699 -2.4181 -2.5852 1.3501 3.5572 3.1584 -3.2822 6.5114 3.6233 0.9708 0.0727 3.6730 2.5525 -1.7629 -4.3074 0.4604 -4.3927 -5.0169 0.3875 -2.0779 -2.7685 0.7854 2.2338 -1.5516 0.9560 4.3218 -0.7452 -0.5052 2.5661 2.1531 -2.3952 6.1792 1.4148 -1.9075 -3.5279 -0.2493 1.8443 -2.7052 -1.4481 1.9597 -1.7935 0.8798 1.1075 -2.0341 -2.0706 0.6159 -1.4989 0.6974 -0.3179 -1.8762 -1.3162 -0.2340 -0.5941 0.6055 -0.3623 4.6297 2.9462 1.7401 -0.7993 -3.9924 0.2437 -3.1019 -1.8796 -0.1001 1.7491 2.1426 -2.2627 4.8883 -0.1429 -0.9171 -0.9360 -0.5863 -0.0063 3.8074
-1.0438 2.6404 -0.0474 -2.4947 0.4815 0.8722 0.1408 -2.0305 5.9024 1.7175 -1.8730 -2.3428 0.4640 0.9516 -5.9134 0.6570 -0.5270 -5.7619 1.2128 0.5336 -3.5006 1.5928 1.5402 -0.3831 -2.3154 -1.6857 -1.0447 0.5713 -2.8706 -0.1271 0.2138 -0.3090 4.3415 0.7129 2.3047 4.4912 0.2820 3.0571 6.0038 4.4457 4.2052 -2.1563 -4.0255 0.0647 -4.5583 4.6186 2.8778 -2.2871 3.3138 4.7193 -1.4053 -3.0768 -0.8796 -4.6895 -4.4154 0.5190 -3.2358 -0.6113 -4.8381 2.8832 -0.2440 2.1328 6.8255 3.6763 1.9614 -1.6714 2.4330 3.8704 -0.8453 -2.4585 -1.4573 -3.5088 -3.8323 -0.0070 -2.1438 -0.3071 -4.4416 1.5235 -0.4795 -3.9501 3.8830 0.3169 -2.2519 2.3465 -0.3493 0.8350 6.3647 0.2297 0.2988 -4.5852 -0.9385 1.3849 -0.7066 -1.2124 0.2894 0.2966 0.4324 1.2844 -1.3297 -1.1346 -1.0756 -0.3243 0.6469 0.1621 -2.2211 0.1803 -1.5734 -0.6505 0.1286 -1.6364 4.7383 2.6125 2.4354 -0.9965 -2.7871 -1.0106 -2.2828 0.1144 -3.1919 1.2515 0.1306 0.7932 5.1597 0.9017 -1.1387 -1.7704 -0.0200 -2.5953 3.6059
-1.2981 2.7487 -0.8757 -3.1196 0.9011 0.0055 1.5192 -1.9164 5.8079 1.2986 -2.3475 -1.8457 1.4750 0.1213 -5.7975 1.4030 -1.3332 -5.4409 1.5462 -0.0346 -3.2395 1.2205 1.4222 -0.3134 -2.7461 -1.5634 -1.5658 -0.5220 -2.8665 0.1481 -0.1272 -0.6788 4.7395 -1.7773 1.2288 5.5876 -1.0776 2.3763 6.6969 3.8524 4.6756 -1.2568 -4.2944 0.3242 -5.0777 2.6333 4.9460 -0.7566 4.2647 3.2977 -1.4563 -5.0558 0.2671 -3.9705 -2.9367 -0.1890 -5.0486 2.3956 -4.0085 2.2935 0.2140 2.0650 6.9012 1.7320 3.8593 -0.4177 3.4278 2.2908 -1.1480 -4.5248 -0.3254 -2.7558 -2.4441 -0.7296 -3.9200 1.5049 -3.8273 1.1654 2.1910 -3.3146 3.4258 0.2593 -2.2070 2.4673 0.7332 0.9672 6.2432 0.8325 -0.3035 -4.5125 -1.1541 1.3933 -1.2770 -1.7776 0.5078 -0.2263 0.3116 1.0955 -1.4832 -1.7342 -0.9340 -0.6333 0.6306 -0.1635 -2.1259 -0.4624 -1.6012 -0.5614 0.8645 -1.6447 4.8037 2.1022 2.5818 -0.6256 -3.2572 -0.7771 -2.7171 0.4924 -2.9435 1.2337 -0.2163 0.4364 5.5356 0.5360 -1.4259 -1.5268 1.0850 -2.3707 3.5203
-0.8343 3.0268 -0.6537 -2.8865 1.3036 0.0245 -1.3753 -1.0768 5.8972 1.3019 -2.1921 -1.9181 1.5665 0.2987 -5.8532 1.3508 -1.1431 -5.5042 1.6337 0.1236 -3.3014 1.5471 1.4555 -0.3053 -2.6900 -1.1435 -1.6183 -0.4551 -2.6499 0.0744 0.4389 -0.4558 4.5893 2.4908 1.1901 4.9908 3.1570 1.1664 6.6010 5.2548 2.9973 -1.8121 -4.1685 1.0227 -4.9961 4.2479 3.8539 -1.5628 5.0931 1.5843 -1.5207 -4.9405 0.9037 -3.9012 -2.8209 0.4831 -4.9933 -2.8617 -3.5484 2.8665 2.4800 0.2781 7.3487 2.9905 3.3617 -1.0265 3.9370 1.1309 -1.0043 -4.4341 0.2115 -2.7293 -2.3518 -0.1508 -3.9040 -2.2522 -3.4371 1.5564 -2.3535 -2.8594 3.9023 -0.6587 -1.8646 2.4825 1.4449 -0.4192 6.7568 0.8886 -0.0672 -4.5683 -0.8541 1.7057 -1.1797 -1.5768 0.8102 -0.2024 0.5667 1.2724 -1.4511 -1.6388 -0.6139 -0.6706 0.7359 0.0267 -2.1702 -0.4109 -1.3697 -0.6125 -0.7396 -1.1389 4.8475 2.8313 2.0490 -0.7754 -3.1771 -0.2703 -2.7151 -1.1967 -2.6244 1.3639 1.3435 -0.0205 5.5262 0.5896 -1.2366 -1.5841 -1.2134 -1.9736 3.7062
-1.4744 2.9350 -0.4853 -3.2674 0.8735 -0.2903 2.3091 -1.3710 4.6132 1.5348 -1.6653 -2.2876 1.8642 1.5656 -5.6220 1.8910 0.0685 -5.5622 1.6974 0.9145 -3.1544 1.0159 1.5664 0.0303 -2.3899 -0.8557 -2.4954 -0.4083 -2.7037 -0.6683 0.6341 -0.0575 3.6794 -0.1656 2.4514 4.0643 0.0770 3.0670 5.6775 4.7593 3.6265 -0.3427 -6.5139 -2.0265 -2.2990 4.7524 2.3162 -0.0384 3.5043 4.3328 -0.5294 -5.6184 -2.6861 -1.5428 -6.0713 -0.9677 -3.1887 1.3116 -4.5760 2.1442 0.6541 2.1171 6.4333 3.4919 1.6081 0.0963 2.3357 3.6808 -0.3927 -4.2108 -2.3404 -1.6197 -4.7687 -0.6360 -3.2480 0.7334 -4.2314 0.8603 1.4419 -3.6362 3.0952 0.5198 -1.9465 1.6175 0.9295 0.8972 5.8484 1.1350 0.8474 -4.5267 -1.2223 1.7208 -1.1825 -1.8819 0.5901 -0.4304 0.2702 1.5327 -1.2923 -1.7248 -0.7325 -1.1341 0.7107 0.4826 -2.1868 -0.4001 -1.3165 -1.0807 1.4111 -1.1995 3.7928 2.3282 2.2595 -0.0819 -3.7991 -1.3391 -2.4208 0.3307 -2.9727 0.6001 0.5526 0.9502 4.6078 0.6710 -0.8813 -1.8740 1.0501 -2.2623 2.8162
0.5837 2.6971 -2.7088 -2.0418 3.2702 -2.1434 1.3070 0.6481 5.5267 -1.2595 -1.9469 0.2358 1.0281 -1.3211 -4.2172 1.3381 -2.7687 -3.9890 0.5981 -1.8102 -1.7369 1.4177 1.0946 -0.4298 -3.5257 0.7600 -1.8677 -2.8206 0.0957 1.1309 1.0640 -1.1971 4.1371 2.7394 -3.2061 3.6440 3.4587 -3.9329 5.0556 5.5714 0.7821 -1.4794 -3.3128 -0.1241 -6.0470 5.0176 2.0004 -1.3412 4.7644 -0.4067 -1.2746 -3.5340 1.1440 -5.6578 -3.0575 -1.1514 -5.0527 -2.4586 2.0890 4.3528 3.0149 -3.3003 6.1553 3.6124 2.1261 -0.9928 3.4688 -0.2898 -0.9345 -3.5667 1.4700 -4.2434 -3.0530 -0.8403 -3.7438 -2.9239 1.6620 3.0451 -1.3712 1.5197 4.9024 -1.0445 0.1442 2.9352 2.1204 -2.2603 5.9941 0.2890 -2.0908 -3.1613 -0.2823 1.6527 -2.2878 -1.3775 2.2390 -1.4311 0.5266 0.6123 -1.5570 -2.3687 1.1985 -0.9942 -0.1366 -0.6469 -1.2924 -1.9323 0.2425 -0.0069 0.6725 0.0134 4.6884 2.8589 1.0257 -0.8097 -3.2960 0.5292 -3.3186 -2.2458 0.7264 2.3544 1.9049 -2.1090 4.7239 -1.1209 -0.8519 -0.3244 -0.6273 0.5117 4.1614
0.1566 3.3571 -2.5946 -2.5436 3.2404 -2.0044 0.9031 0.3990 5.8985 -0.5207 -1.8746 -0.2059 1.2982 -2.6076 -4.3853 0.4288 -3.3559 -3.4201 1.0956 -1.1654 -2.2795 1.3685 1.6742 -0.6044 -3.4232 0.4299 -1.9594 -2.4783 -0.3540 0.9025 1.1312 -1.2923 4.3255 2.9545 -3.2076 4.0048 3.5400 -3.9272 5.4807 5.4611 0.4200 -0.8780 -3.3288 0.3690 -6.2413 4.7094 0.0028 0.1565 4.8940 1.3115 -1.8738 -4.4731 0.6659 -5.6001 -2.1147 0.1370 -5.4815 -2.5206 1.8715 3.9884 2.9285 -3.3499 6.5291 3.3270 0.4326 0.2689 3.6188 1.7245 -1.7611 -4.4931 0.7445 -4.1501 -2.1456 0.1840 -4.1387 -2.8474 1.3262 2.6848 -1.4832 1.3743 4.6840 -0.9555 -0.1747 2.8988 2.0008 -2.3582 6.2782 0.4380 -1.8570 -3.4156 -0.4632 2.1052 -2.3350 -1.6388 2.3217 -1.4123 0.5692 1.1532 -1.7842 -2.3555 1.0445 -1.0820 0.1728 -0.2348 -1.6663 -1.6802 0.1144 -0.2134 0.5248 -0.1749 4.8801 2.7959 1.2513 -0.6577 -3.3681 0.5376 -3.4396 -2.0890 0.3506 2.1528 1.9331 -2.1847 4.9941 -0.6646 -0.7341 -0.6641 -0.6629 0.3102 4.1207
0.1396 3.1584 -2.7630 -2.5007 2.7100 -2.2487 0.8459 0.5212 5.4136 0.0654 -2.1952 -0.5784 2.8722 -1.7530 -4.5674 1.7019 -2.6638 -4.3489 1.8067 -1.0916 -2.3357 1.2883 1.6598 -0.5303 -2.6297 -0.1989 -2.7147 -2.1949 -1.0679 0.4025 1.5894 -0.8874 3.7233 3.8900 -2.1216 3.2263 4.6948 -2.7826 4.6219 5.5327 1.2383 -0.1194 -6.7725 0.5996 -3.5010 4.7198 0.5708 0.7186 4.9696 2.1167 -1.1287 -5.8759 0.6934 -4.4990 -6.3374 0.2157 -2.1703 -2.9953 0.6333 3.7128 3.9433 -2.5611 5.7139 3.2798 0.7169 0.6047 3.6367 2.2669 -1.2244 -4.4725 0.4242 -4.2421 -5.0408 -0.0534 -1.9368 -3.1241 0.1486 2.3507 -1.8247 0.5137 4.3640 -0.7967 -0.5109 2.4261 2.7474 -1.8872 5.5584 1.6775 -1.2687 -3.8028 -0.2965 1.8278 -2.5199 -1.5309 1.8626 -1.6500 0.8246 1.0743 -1.8523 -2.1281 0.4909 -1.4589 0.6644 -0.3637 -1.8277 -1.3819 -0.4028 -0.5965 0.6449 -0.1144 4.3819 2.7567 1.5203 -0.3391 -4.0634 0.0781 -3.0075 -2.0646 -0.3949 1.7239 2.6181 -1.5855 4.3037 -0.2025 -1.0547 -0.9793 -0.6766 -0.0821 3.6965
0.5963 2.9239 -2.6139 -1.9720 3.4390 -1.8420 1.0633 0.3461 5.7181 -1.0366 -1.9522 0.0622 0.7086 -3.4514 -3.7345 -0.4805 -3.6642 -2.8475 0.7800 -1.6359 -1.9274 1.4557 1.2063 -0.4118 -3.4173 0.8947 -1.9027 -2.7564 -0.0792 1.0119 1.1378 -1.2120 3.9973 2.9374 -3.0539 3.3356 3.5661 -3.9877 4.6660 5.6422 1.2036 -1.3437 -3.0905 0.3849 -6.1354 4.9209 2.3130 -1.5848 5.0051 0.0380 -0.7573 -2.8243 -0.6597 -5.3307 -3.3924 1.6824 -5.5592 -2.6165 1.8121 4.3104 2.9868 -3.5793 5.8080 3.5055 2.3412 -1.2619 3.6930 0.0618 -0.4625 -2.8707 -0.4968 -3.8877 -3.4150 1.8367 -4.2236 -3.0159 1.4095 2.9740 -1.5182 1.2806 4.8761 -1.0667 -0.0205 2.8856 2.0542 -2.5628 5.7405 0.0634 -2.2816 -3.0561 -0.2298 1.8341 -2.2320 -1.2928 2.3284 -1.2810 0.6293 0.7627 -1.6054 -2.2764 1.2398 -0.9707 -0.0011 -0.5288 -1.4190 -1.8437 0.1948 -0.0819 0.5748 -0.1666 4.7140 2.9065 1.2518 -0.7454 -3.1243 0.7099 -3.3486 -2.2696 0.5297 2.2812 1.9516 -2.1949 4.5008 -0.9636 -0.8264 -0.4486 -0.7042 0.3290 4.1340
-1.4269 2.4630 -0.4726 -3.1611 0.4346 0.2010 2.0542 -1.2578 5.2817 1.4192 -2.3741 -1.9568 0.2395 1.2093 -5.1262 1.3285 0.3814 -5.7387 1.4652 0.0582 -3.1967 1.1454 1.2169 -0.1162 -2.7257 -1.8527 -1.5621 -0.3818 -3.1465 -0.0148 0.4179 -0.1008 4.1102 -0.4287 2.4206 4.2783 -0.4484 3.0903 5.8884 3.9079 4.4101 -0.8716 -4.3791 0.1054 -4.9849 4.2417 3.1573 -1.2299 2.6221 4.6665 -0.2477 -3.2165 -0.5587 -5.1148 -5.0061 0.2203 -3.6809 1.7405 -4.5650 2.7770 -0.0122 2.1639 6.7591 3.3218 2.0615 -0.9809 1.7660 3.6533 -0.0242 -2.6133 -1.2011 -3.9597 -4.4381 -0.3595 -2.6092 1.0619 -4.3842 1.5110 1.7478 -3.5702 3.6791 0.4736 -2.1369 2.1953 0.3455 0.9240 6.2677 0.6873 -0.0548 -4.4562 -1.2408 1.1732 -1.0413 -1.8049 0.1477 -0.0887 0.2343 0.9610 -1.3023 -1.6848 -1.2263 -0.6646 0.6029 -0.2179 -2.0674 -0.3897 -1.8397 -0.6348 1.2528 -1.1801 4.3524 2.1240 2.2990 -0.4148 -3.1801 -1.0783 -2.7455 0.4539 -3.2196 1.2169 0.1829 0.9369 4.9799 0.6000 -1.5304 -1.5728 1.1011 -2.2996 3.3784
-1.4122 2.9828 -0.5441 -3.3007 1.0348 -0.2208 1.4635 -1.5213 5.0646 1.3596 -1.8608 -2.0669 2.0618 1.3338 -5.4187 1.9621 -0.1608 -5.3708 1.7420 0.6745 -2.9673 0.9381 1.4297 0.1636 -2.4699 -0.7610 -2.4357 -0.7176 -2.7433 -0.5367 0.5954 0.0271 3.5701 0.1918 2.6526 3.6887 1.4122 3.5532 4.5460 4.7929 3.2851 -0.0194 -6.6418 -1.7344 -2.4760 4.7035 1.9807 0.2968 3.5874 4.0600 -0.2535 -5.8230 -2.4497 -1.6843 -6.0991 -0.6920 -3.3286 0.8121 -4.6520 2.3615 2.3603 2.7088 4.9870 3.4026 1.3418 0.3794 2.3809 3.4738 -0.1585 -4.3988 -2.1699 -1.6742 -4.7817 -0.4227 -3.3087 0.2641 -4.3132 1.0634 1.0083 -3.6890 3.2779 0.1696 -1.9992 1.7579 2.2203 1.3646 4.7028 1.2316 0.6721 -4.3605 -1.2093 1.7183 -1.1616 -1.9388 0.6605 -0.3673 0.2726 1.4410 -1.2012 -1.8703 -0.6849 -1.0433 0.6787 0.3373 -2.0463 -0.5947 -1.3628 -0.9529 0.9674 -1.2453 3.9750 2.2865 2.0538 0.1405 -3.8988 -1.1763 -2.4330 -0.0469 -3.0386 0.7613 1.1173 1.2074 4.0377 0.5328 -1.0126 -1.7070 0.6886 -2.3037 2.9633
0.1128 3.2885 -2.1451 -2.5450 2.6871 -1.8987 0.4081 -1.0180 5.6223 0.1145 -2.3573 -0.8855 2.7094 -1.9045 -4.6004 1.8300 -2.9473 -3.9797 1.8698 -0.9409 -2.3941 1.2631 1.4579 -0.2034 -2.6399 -0.0919 -2.7609 -2.2075 -1.4834 0.1460 1.5487 -1.1450 3.6046 4.0803 -1.7923 3.0752 5.2532 -1.1875 4.2143 5.5114 2.0187 -0.0991 -6.7903 0.7231 -3.4833 4.7277 3.0481 -0.4676 4.9150 0.7391 0.2374 -6.4219 0.2792 -2.2684 -5.7906 0.9163 -4.5185 -3.2404 -0.4450 3.6505 4.6184 -0.5087 5.1850 3.2849 2.8854 -0.5092 3.5792 0.5887 0.2035 -5.0295 -0.0317 -2.0031 -4.4962 0.6515 -4.2652 -3.2832 -0.7320 2.2301 -2.0778 -0.5279 4.3201 -0.9038 -1.1794 2.3042 3.2439 -0.3970 5.1108 1.5585 -1.4927 -3.7351 -0.3011 1.9278 -2.1714 -1.5759 1.7883 -1.3744 0.8077 1.0848 -1.6014 -2.1347 0.3868 -1.4119 0.6896 -0.3383 -1.8174 -1.3906 -0.6263 -0.6877 0.4138 -1.0284 4.3935 2.7308 1.7030 -0.1842 -4.0969 0.1587 -2.9558 -2.1564 -1.0551 1.5703 2.8428 -1.0307 4.0518 -0.1781 -1.1765 -1.1178 -0.8539 -0.8951 3.6202
0.1145 3.0934 -2.1100 -2.5097 2.5282 -1.6769 0.3144 -1.0678 5.6928 0.1399 -2.5651 -0.8984 1.9730 -0.9042 -4.9475 2.6187 -2.2139 -4.6067 1.8752 -1.1403 -2.4051 1.3183 1.2573 -0.2072 -2.6165 -0.2285 -2.7039 -2.1677 -1.7182 0.1702 1.5009 -1.1241 3.6979 4.0814 -1.5408 3.1754 5.1904 -0.8942 4.3546 5.4636 2.3479 -0.1757 -6.6480 0.9681 -3.5550 5.0967 1.1465 0.3049 4.4646 3.2398 -0.7359 -6.3828 0.3874 -2.3712 -5.5815 1.1675 -4.5198 -3.3244 -0.7489 3.6533 4.4936 -0.3078 5.3427 3.6992 0.7519 0.2835 3.1695 2.8779 -0.7486 -5.0345 -0.0561 -2.0671 -4.3278 0.7746 -4.2305 -3.3206 -1.0327 2.2320 -2.1709 -0.7543 4.3430 -0.9184 -1.3245 2.3488 3.1155 -0.3022 5.2549 1.5209 -1.6723 -3.7440 -0.3004 1.7330 -2.1194 -1.5311 1.5882 -1.2559 0.8329 0.8895 -1.5960 -2.1158 0.1988 -1.3341 0.7081 -0.5349 -1.8031 -1.3632 -0.8411 -0.6545 0.3455 -1.0841 4.4642 2.7695 1.5845 -0.2178 -4.0388 0.1436 -2.9514 -2.1632 -1.2799 1.5924 2.7769 -0.9219 4.1660 -0.1547 -1.3798 -1.1069 -0.9129 -1.0408 3.6660
0.4395 3.0770 -2.2882 -2.2017 3.4730 -1.6294 0.6067 0.0024 5.9078 -1.2334 -2.0571 -0.2000 1.0118 -0.6749 -4.4925 1.4518 -2.1057 -4.4337 0.6485 -1.5034 -2.0839 1.1767 1.1669 -0.1992 -3.5624 0.9500 -1.9112 -2.9369 -0.2875 0.9532 1.0753 -1.1672 3.9568 2.9428 -2.9531 3.3139 4.4922 -2.7153 4.0748 5.2051 -0.2502 -0.5252 -2.7602 -0.2857 -5.9266 4.3307 -0.9276 0.2397 4.7913 0.9716 -1.1915 -2.8991 -1.2218 -4.9709 -2.8185 1.1212 -5.5755 -3.0223 1.3850 4.3588 4.4343 -1.6335 4.8702 2.9697 -0.4444 0.3870 3.5336 1.4258 -1.0485 -3.1190 -0.8242 -3.5914 -3.0051 1.4888 -4.2956 -3.3472 1.0438 2.9875 -1.8933 0.9182 4.9186 -1.2698 -0.1960 2.8610 3.2438 -0.9362 4.9385 0.3536 -1.6248 -3.5336 -0.3971 1.9546 -2.0495 -1.5070 2.3519 -1.1056 0.4435 0.8387 -1.4858 -2.4748 1.2226 -0.8949 -0.1712 -0.4715 -1.4852 -2.0321 0.0994 -0.1094 0.3082 -0.3423 4.7668 2.5801 0.6770 -0.2458 -3.1409 0.4792 -3.2569 -2.5070 0.2852 2.2599 2.3813 -1.5350 4.1760 -1.1530 -0.8815 -0.5792 -0.9684 0.1065 4.1389
0.4871 2.7725 -2.2698 -2.1815 3.1782 -1.7654 0.4202 -0.4580 6.0638 -1.2984 -2.2824 -0.0671 1.1710 -1.0087 -4.2906 1.4821 -2.4730 -4.2379 0.6422 -1.8119 -1.9117 1.2619 0.9160 -0.1692 -3.5853 0.6134 -1.8606 -2.9719 -0.4469 1.0237 1.0888 -1.2338 3.9795 3.1043 -2.8690 3.3801 4.6172 -2.4913 4.1588 5.4907 0.6508 -0.8512 -3.1596 0.4468 -6.1127 4.8136 -0.4596 -0.5076 4.7869 1.9124 -0.9971 -3.7563 1.5149 -5.5539 -2.5876 -0.5861 -5.2681 -2.9586 1.3717 4.3662 4.4613 -1.3993 4.9267 3.3826 -0.3923 -0.2690 3.4596 1.9729 -0.7864 -3.8636 1.6101 -4.1088 -2.6747 -0.4886 -3.9293 -3.3216 0.9693 3.0202 -1.8439 0.8831 4.9374 -1.3494 -0.4335 2.9653 3.2174 -0.8007 4.9645 0.3966 -1.9096 -3.3725 -0.3566 1.6552 -2.0286 -1.5075 2.0893 -1.1542 0.4631 0.5555 -1.4051 -2.4760 0.9703 -0.8937 -0.1596 -0.7486 -1.3465 -2.0393 -0.1021 -0.0326 0.2274 -0.5941 4.8582 2.7250 0.7732 -0.4169 -3.3178 0.6637 -3.3214 -2.5375 0.1196 2.3313 2.4176 -1.4880 4.2093 -1.1753 -1.1157 -0.4623 -0.9943 -0.0456 4.2052
-1.2233 2.6193 -0.4792 -3.2400 0.8907 0.1858 0.8650 -1.4319 5.6507 0.9713 -2.6090 -1.7040 1.5889 0.1338 -5.4648 1.2214 -1.3020 -5.2412 1.4794 -0.2341 -2.9298 1.1159 1.0087 0.0967 -3.0553 -1.4344 -1.6039 -1.0547 -3.1113 0.0726 0.4357 0.0114 3.8839 0.3429 2.6623 3.6973 1.5751 3.5136 4.5881 4.0948 4.0485 -0.4237 -4.1135 0.7569 -5.1210 2.8814 4.3973 0.0398 4.3822 2.6585 -0.7304 -4.7819 0.9918 -3.9777 -2.9956 -0.1696 -5.1273 0.3818 -4.7689 3.1650 2.3631 2.6244 5.2162 1.8612 3.3828 0.2317 3.4374 1.7181 -0.5515 -4.4046 0.2923 -2.7626 -2.6309 -0.7971 -3.9945 -0.1449 -4.5399 1.8347 0.6085 -3.7277 3.9833 -0.2002 -2.1699 2.3120 2.0875 1.2803 5.0568 0.8024 -0.2573 -4.2507 -1.1835 1.2935 -0.9882 -1.9353 0.3884 -0.0438 0.2583 0.8710 -1.1469 -2.0146 -1.0007 -0.5960 0.4968 -0.3608 -1.8748 -0.8285 -1.8071 -0.5149 0.5716 -1.2358 4.4739 2.1202 2.0959 -0.0658 -3.3475 -0.5417 -2.7559 -0.4124 -3.2917 1.4060 1.0452 1.1722 4.2918 0.2602 -1.6497 -1.3782 0.3185 -2.3710 3.5402
-0.3609 3.2958 -1.6471 -2.9889 2.6560 -1.1809 0.2689 -0.9765 5.9687 -0.1997 -2.4054 -0.6940 1.9592 -1.7953 -4.6988 1.1155 -2.8565 -4.0593 1.3471 -0.9458 -2.3732 1.0274 1.3625 -0.0487 -3.3886 -0.1631 -2.1020 -2.4413 -1.5866 0.5608 1.3865 -0.9746 3.9365 3.9484 -1.5616 3.4909 5.0804 -0.8040 4.5774 5.2898 1.0777 -0.4036 -3.6482 1.3063 -6.1059 4.6907 2.2411 -0.7154 4.4967 -0.0364 0.0803 -4.3548 1.9169 -5.1380 -2.7209 0.2424 -5.7613 -3.4297 -0.5398 4.0734 4.4058 -0.0769 5.4839 3.2495 2.3774 -0.5848 3.1678 0.0988 0.2316 -4.2391 1.4625 -3.7641 -2.5790 -0.1451 -4.4800 -3.4902 -0.8341 2.6555 -2.2496 -0.5663 4.7157 -1.0914 -1.1701 2.6740 3.0287 -0.0357 5.3912 0.9032 -1.4141 -3.7078 -0.7733 1.9392 -1.7695 -1.9710 1.7189 -0.8758 0.3902 1.0542 -1.3928 -2.5041 0.3184 -0.9709 0.2357 -0.3618 -1.6578 -1.7134 -0.7116 -0.3358 0.2578 -0.9563 4.7398 2.5136 1.3418 -0.1406 -3.3582 0.4989 -3.4327 -2.3660 -1.1089 1.9691 2.6685 -0.7735 4.3860 -0.5370 -1.2292 -0.8824 -1.0264 -0.8792 3.9884
-1.7790 2.4844 -0.5579 -3.6661 0.5270 -0.0963 1.1260 -1.0877 5.6070 1.1016 -2.4548 -1.4897 0.7014 1.8653 -4.3114 1.6745 1.0129 -5.0671 1.3907 -0.0583 -2.7593 0.6451 1.1500 0.2375 -3.0050 -1.8239 -1.7285 -0.9541 -3.1413 0.2038 0.5654 0.2483 3.7938 0.3693 2.8864 3.5019 1.6249 3.8140 4.2749 4.4431 3.0242 -0.4174 -4.0040 0.0673 -5.4321 4.3974 1.8032 0.1449 3.2116 3.7105 -0.7644 -4.8113 0.2391 -4.3702 -2.7681 -0.6810 -5.2870 0.6355 -4.5669 3.3359 2.4769 2.9790 4.8939 3.1168 1.1634 0.3863 2.0242 3.1261 -0.5252 -4.4624 -0.3569 -3.0931 -2.4332 -1.2100 -4.0960 0.0376 -4.4310 2.0235 0.8724 -3.4727 4.0783 -0.0739 -2.0394 2.3671 2.2361 1.6213 4.8120 0.7806 0.3918 -4.0365 -1.5591 1.1692 -1.0515 -2.2912 0.1911 -0.1644 -0.0722 0.9087 -1.0765 -2.1309 -1.2158 -0.6541 0.3596 -0.2898 -1.7695 -0.8573 -1.8469 -0.4378 0.7698 -0.9624 4.4376 1.9752 1.7900 0.0484 -3.3016 -1.0231 -2.9449 -0.2891 -3.2185 1.5367 1.1547 1.4462 4.1166 0.2559 -1.5854 -1.2460 0.5121 -2.1534 3.5766

>  <OB_ATOM_TYPES> (1qbuB1)
O.3 O.3 O.2 O.2 C.3 C.3 C.3 C.3 C.3 C.3 N.am S.2 C.ar C.ar C.ar C.ar C.ar C.ar C.ar C.ar C.ar C.ar C.ar C.ar C.ar C.ar C.ar C.ar N.ar C.3 C.3 C.3 C.3 C.3 N.am N.am C.2 C.ar C.ar C.ar C.ar C.2 C.ar

>  <ENSEMBLE_RMSD> (1qbuB1)
0.000 1.437 1.535 2.002 2.095 2.179 2.228 2.229 2.450 2.476 2.546 2.546 2.568 2.604 2.673 2.746 2.757 2.863 2.879 2.906 3.029 3.098 3.101 3.275 3.319 3.351 3.356 3.367 3.522 3.529 3.530 3.551 3.551 3.590 3.609 3.627 3.706 3.747 3.781 3.794 3.803 3.827 3.994 4.024 4.075 4.085 4.162 4.198 4.248 4.346

$$$$
