
 OpenBabel03071213D

 10 10  0  0  0  0  0  0  0  0999 V2000
    3.0210   28.3830   22.0680 O   0  0  0  0  0
   -0.8500   26.0020   19.1990 O   0  0  0  0  0
    3.6550   25.9600   20.6580 O   0  0  0  0  0
    1.8150   25.0060   19.0430 O   0  0  0  0  0
    0.7220   28.2860   21.2290 C   0  0  0  0  0
   -0.2510   27.4020   20.8280 O   0  0  0  0  0
    2.1870   27.9200   21.0530 C   0  0  0  0  0
    0.0190   26.1540   20.2800 C   0  0  0  0  0
    2.3470   26.3800   20.9910 C   0  0  0  0  0
    1.4540   26.1230   19.7590 C   0  0  0  0  0
  1  7  1  0  0  0
  2  8  1  0  0  0
  3  9  1  0  0  0
  4 10  1  0  0  0
  5  6  1  0  0  0
  5  7  1  0  0  0
  6  8  1  0  0  0
  7  9  1  0  0  0
  8 10  1  0  0  0
  9 10  1  0  0  0
M  END
>  <MOLID> (1qh7A1)
1qh7A1

>  <SMILES_CANONICAL> (1qh7A1)
O[C@@H]1CO[C@H]([C@@H]([C@H]1O)O)O	

>  <FINGERPRINT> (1qh7A1)
0000000000000000000000000000000000000001000000000000000000000000000000000000000000000000000000000000000000000001000000010000000010000000001010000000000001000000000000000000000000000000000000000000000000000000001010000000000000000000000000000000000000000000000000000000000000000000000000000000000100000000000000000010000000000000000000000000000000000000010000000000000010000000000000000000000000000000000000000000000000000010000000000000000000000000000000000000000000000000000000000000000000101010100000000000100000000000000000000000000000000000000000000000000000000000000000000001000101000000000000000000000000000000000000000000000000000001000000000000000000000000001000000000000000000000000000000000000000000101000000000000000000000000000010000000000000000000000100000000000000000000000001000000000000000000000000000000000000000000000000000000000000000000000000000010000000000000000000000010000000000000000000000000001000000000000000000000000000000000000000000000000010100000000000000000000000000000000000000000000000000000

>  <MACCS166> (1qh7A1)
000000000000000000000000000000000000000000000000000011001000000000000001000000000000000011100000010000010000000000000001001000100011000011110010010001011000101000111000

>  <OB_MW> (1qh7A1)
150.053

>  <OB_logP> (1qh7A1)
-2.5823

>  <OB_PSA> (1qh7A1)
90.15

>  <OB_MR> (1qh7A1)
29.7672

>  <OB_ATOMIC_CHARGES> (1qh7A1)
-0.217606797 -0.1869438158 -0.2173905153 -0.2147572358 0.1804028407 -0.3237350579 0.2143047962 0.3023504935 0.2199286944 0.2434465971

>  <MCT_HBD> (1qh7A1)
4

>  <MCT_HBA> (1qh7A1)
5

>  <ENSEMBLE_TOTAL> (1qh7A1)
2

>  <ENSEMBLE_COORDS> (1qh7A1)
1.6091 1.6214 1.5572 -2.2619 -0.7596 -1.3118 2.2431 -0.8016 0.1472 0.4031 -1.7556 -1.4678 -0.6899 1.5244 0.7182 -1.6629 0.6404 0.3172 0.7751 1.1584 0.5422 -1.3929 -0.6076 -0.2308 0.9351 -0.3816 0.4802 0.0421 -0.6386 -0.7518
1.6202 1.6219 1.5754 -2.2940 -0.9616 -1.2606 2.2578 -0.6302 0.0934 0.2727 -1.9160 -1.3258 -0.6428 1.4442 0.8933 -1.5189 0.7600 0.1813 0.6642 0.9634 0.8631 -1.3204 -0.3141 -0.5514 0.9792 -0.1618 0.1217 -0.0180 -0.8059 -0.5904

>  <OB_ATOM_TYPES> (1qh7A1)
O.3 O.3 O.3 O.3 C.3 O.3 C.3 C.3 C.3 C.3

>  <ENSEMBLE_RMSD> (1qh7A1)
0.000 0.286

$$$$
