
 OpenBabel03071213D

 34 38  0  0  0  0  0  0  0  0999 V2000
   26.3820   17.1890   14.4050 Cl  0  0  0  0  0
   26.5470    7.1770   12.4830 O   0  0  0  0  0
   31.4610   10.1160   15.7850 O   0  0  0  0  0
   30.3610    9.7750   17.9680 O   0  0  0  0  0
   24.2500    5.8860   13.3330 C   0  0  0  0  0
   24.1850    8.4250   13.8120 C   0  0  0  0  0
   22.7030    5.9010   13.3960 C   0  0  0  0  0
   22.6520    8.2880   13.8790 C   0  0  0  0  0
   27.2480    7.4710   15.9930 C   0  0  0  0  0
   28.7220    7.5290   13.9770 C   0  0  0  0  0
   27.9910    8.7340   16.5080 C   0  0  0  0  0
   29.3300    8.8400   14.4790 C   0  0  0  0  0
   19.1260    6.3320   11.0810 C   0  0  0  0  0
   19.0800    8.6570   11.5570 C   0  0  0  0  0
   20.3680    6.1970   11.7260 C   0  0  0  0  0
   20.3140    8.5760   12.2170 C   0  0  0  0  0
   28.1580   15.3090   13.6220 C   0  0  0  0  0
   28.8860   14.1390   13.7990 C   0  0  0  0  0
   27.7540   13.1400   17.1810 C   0  0  0  0  0
   28.4800   11.9650   17.3500 C   0  0  0  0  0
   27.1650   15.0340   15.8170 C   0  0  0  0  0
   29.4770   12.2390   15.1630 C   0  0  0  0  0
   18.5230    7.5480   11.0100 N   0  0  0  0  0
   24.9150    7.0770   14.1230 C   0  0  0  0  0
   27.3690    7.4100   14.5240 N   0  0  0  0  0
   22.2210    7.2210   12.9640 N   0  0  0  0  0
   29.3550    8.7870   15.9380 N   0  0  0  0  0
   27.3010   15.7520   14.6320 C   0  0  0  0  0
   26.3620    7.2260   13.7020 C   0  0  0  0  0
   20.9660    7.3330   12.3030 C   0  0  0  0  0
   27.8890   13.8680   16.0000 C   0  0  0  0  0
   28.7550   13.4120   14.9810 C   0  0  0  0  0
   29.3520   11.5230   16.3460 C   0  0  0  0  0
   30.2340   10.0180   16.5540 S   0  0  0  0  0
  1 28  1  0  0  0
  2 29  2  0  0  0
  3 34  2  0  0  0
  4 34  2  0  0  0
  5  7  1  0  0  0
  5 24  1  0  0  0
  6  8  1  0  0  0
  6 24  1  0  0  0
  7 26  1  0  0  0
  8 26  1  0  0  0
  9 11  1  0  0  0
  9 25  1  0  0  0
 10 12  1  0  0  0
 10 25  1  0  0  0
 11 27  1  0  0  0
 12 27  1  0  0  0
 13 15  1  0  0  0
 13 23  2  0  0  0
 14 16  2  0  0  0
 14 23  1  0  0  0
 15 30  2  0  0  0
 16 30  1  0  0  0
 17 18  1  0  0  0
 17 28  2  0  0  0
 18 32  2  0  0  0
 19 20  2  0  0  0
 19 31  1  0  0  0
 20 33  1  0  0  0
 21 28  1  0  0  0
 21 31  2  0  0  0
 22 32  1  0  0  0
 22 33  2  0  0  0
 24 29  1  0  0  0
 25 29  1  0  0  0
 26 30  1  0  0  0
 27 34  1  0  0  0
 31 32  1  0  0  0
 33 34  1  0  0  0
M  END
>  <MOLID> (1ql7A1)
1ql7A1

>  <SMILES_CANONICAL> (1ql7A1)
Clc1ccc2c(c1)ccc(c2)S(=O)(=O)N1CCN(CC1)C(=O)[C@@H]1CCN(CC1)c1ccncc1	

>  <FINGERPRINT> (1ql7A1)
0000000000000010100000001001001000000001100000000010000000000000000000010001000001000000000000000000010110110000000001100000000000100000000011000000000000000000000000000000000000100000000000000000000000000010100000000000000000100000000000000000000000001000000000000010000000000000000000000000000000000000100010001100000000000000001000000010000000000100011100000000001110011000000000000000011000000000100010000000011000000000000000000010000000000001100000000010001000000000000000000000000000000100100000000000010000000000000001000010000000000000000000000000000000000000000000000000000001100000000000000000000000000000000000000110001000000001110000000001000000000000000000000011100000000100100001110000100000100000100000000000000000100001001010100101000000000000001110000000001000000000001000000000000000000000000000000000000000000100000000000000000010000000000000000001000000000000000000001000110000001000000000000000010000000000001000000000011000000000000000010000000000000000000000000000001000000000100000110000001001100000

>  <MACCS166> (1ql7A1)
000000000000000000000000010000011000000000001000011000100111110110100000101101111000111100010100011101101110011100001111110110011100111111010100111100001101011010111000

>  <OB_MW> (1ql7A1)
498.149

>  <OB_logP> (1ql7A1)
4.6593

>  <OB_PSA> (1ql7A1)
82.2

>  <OB_MR> (1ql7A1)
144.56

>  <OB_ATOMIC_CHARGES> (1ql7A1)
-0.0822444564 -0.274879016 -0.1527715592 -0.1527715592 0.0305382773 0.0305382773 0.0912656477 0.0912656477 0.1125531655 0.1125531655 0.1172998805 0.1172998805 0.1001556201 0.1001556201 0.0351880635 0.0351880635 0.0113945174 0.0009056051 0.0013965225 0.0199083464 0.0113946742 0.0199081896 -0.2422322551 0.0801131752 -0.2765750468 -0.3073892945 -0.1520234602 0.0576716005 0.225342987 0.0509605894 0.0009189839 0.0013831437 0.1221979766 0.0633890268

>  <MCT_HBD> (1ql7A1)
0

>  <MCT_HBA> (1ql7A1)
7

>  <ENSEMBLE_TOTAL> (1ql7A1)
50

>  <ENSEMBLE_COORDS> (1ql7A1)
0.9889 7.5474 -0.5579 0.6781 -2.1710 -2.3052 5.2048 0.3055 2.1634 3.4984 0.0055 3.9653 -1.4785 -3.8577 -1.8458 -1.7037 -1.8722 -0.3172 -2.9674 -4.0951 -1.6759 -3.1703 -2.2163 -0.1802 1.1623 -2.5568 1.2668 2.8125 -2.1411 -0.5086 1.6365 -1.3039 1.9888 3.1945 -0.8368 0.1594 -6.8542 -2.8043 -3.3182 -7.1313 -1.6611 -1.4067 -5.4218 -3.0870 -3.0326 -5.8652 -1.8658 -1.0177 3.0020 5.7915 -0.5494 3.6556 4.5678 -0.1182 1.0529 3.1960 2.2085 1.6984 2.0799 2.5937 1.1061 5.2301 0.8604 3.6752 2.5206 1.2169 -7.6765 -2.1377 -2.5716 -0.8560 -3.0763 -0.6944 1.4570 -2.5051 -0.1542 -3.6413 -2.8272 -1.4179 3.0472 -0.9916 1.6294 1.7842 6.1052 -0.0757 0.4870 -2.5388 -1.1448 -4.9525 -2.6374 -1.8514 1.7008 4.0940 1.2677 3.0446 3.7473 0.7568 3.0239 1.7372 2.1000 3.8076 0.2550 2.5665
0.8757 8.2479 0.8940 0.3817 -4.4540 1.8540 4.1911 0.1956 -0.3679 4.5349 0.1608 2.1157 -1.2983 -4.1050 -1.2053 -1.7862 -2.3276 0.4885 -2.7681 -4.0941 -1.5847 -3.2360 -2.3521 0.0538 1.0572 -1.9708 -0.6160 2.5865 -3.2801 0.6951 1.1923 -0.7832 0.3180 2.7347 -2.1775 1.7284 -6.0082 -2.3731 -3.9371 -6.5570 -1.1452 -2.1394 -4.7284 -2.8252 -3.3333 -5.4429 -1.4887 -1.4790 2.8260 6.5889 0.1336 3.4620 5.2859 0.0481 1.0384 3.2230 2.0321 1.6566 2.0332 1.9208 1.0468 5.5932 1.4529 3.4893 2.8934 0.5451 -6.8864 -1.5915 -3.3937 -1.1552 -3.6753 0.2339 1.2677 -3.2129 0.1012 -3.3504 -2.7708 -1.3446 2.4287 -0.8712 1.1196 1.6681 6.7289 0.8009 0.2271 -3.8079 0.8147 -4.4804 -2.4030 -2.0776 1.6273 4.3813 1.3828 2.8937 4.2170 0.6363 2.8676 1.8522 1.1343 3.6441 0.3082 0.9748
0.5039 6.8532 -1.0609 1.9926 -1.8605 -2.6626 4.6633 0.0629 2.8045 2.6413 -0.3387 4.2203 -0.9602 -0.9086 -1.5843 -0.9846 -3.4106 -1.5287 -2.4130 -0.9357 -2.0256 -2.4235 -3.3716 -1.9933 0.7906 -2.4199 0.6896 3.0442 -2.6243 -0.2023 1.2134 -1.2304 1.5262 3.4742 -1.3935 0.5716 -6.6870 -3.0741 -1.2675 -6.4780 -0.8561 -0.9865 -5.2238 -3.2662 -1.4343 -5.1437 -0.8923 -1.1094 2.2057 4.7941 -1.1399 2.8004 3.5807 -0.6057 0.8266 3.2042 2.5612 1.4205 2.0938 3.0348 0.7442 4.8852 0.7967 2.9676 1.8868 1.1476 -7.3003 -1.9516 -1.0652 -0.2650 -2.1780 -2.0199 1.6264 -2.5624 -0.4861 -3.0774 -2.1451 -1.5311 2.6739 -1.2836 1.8233 1.2273 5.4172 -0.4617 1.2181 -2.1580 -1.7494 -4.4655 -2.1522 -1.3823 1.2851 3.7616 1.3008 2.3735 3.0801 0.5684 2.5112 1.4353 2.3335 3.2178 -0.0420 2.9181
-1.0864 6.4698 0.1893 -0.8063 -2.7294 2.1373 5.2162 0.3091 0.1189 5.1785 0.1986 2.6168 -0.9898 -1.5420 -0.6866 -1.9381 -3.8255 -0.2173 -1.8082 -1.5241 -1.9584 -2.7906 -3.6757 -1.4650 1.9685 -2.7306 2.4276 2.1016 -2.7434 -0.0103 2.5213 -1.3175 2.4518 2.6946 -1.3441 0.0105 -6.4808 -1.9566 -3.1468 -5.5505 0.0817 -3.0105 -5.2748 -2.6310 -2.5967 -4.4115 -0.3962 -2.4912 0.5043 4.6820 -0.9917 1.4797 3.6072 -0.9837 1.9310 3.1243 2.7088 2.8560 2.1469 2.6668 0.5133 4.6570 1.4379 2.9218 2.0560 0.2229 -6.6324 -0.6873 -3.3560 -0.6835 -2.9639 -0.2489 1.2909 -2.9855 1.1717 -3.0418 -2.2624 -1.7233 3.4298 -1.1394 1.2877 0.0471 5.1819 0.1687 -0.0969 -2.8753 1.1416 -4.2374 -1.8286 -2.2863 1.4225 3.6650 1.4589 1.9332 3.1176 0.1846 3.3639 1.6069 1.4144 4.4547 0.2544 1.3565
-0.7022 6.3195 -0.8263 1.2034 -2.2170 -2.0066 5.3644 0.1706 2.1765 3.5690 0.1066 3.9111 -1.3386 -3.5149 -1.3660 -1.0925 -1.1939 -0.4390 -2.8345 -3.3927 -1.1455 -2.5935 -1.1638 -0.2363 1.4411 -2.8700 1.5120 3.1946 -2.7769 -0.1506 1.8399 -1.5031 2.0377 3.5880 -1.3824 0.3034 -6.3720 -0.2323 -2.2454 -6.3505 -2.2741 -3.1773 -5.0614 -0.4411 -1.5763 -5.1660 -2.5887 -2.6348 -0.6863 3.8166 0.0999 -0.0466 2.6555 0.6903 3.4544 3.9374 1.1085 4.0098 2.8264 1.6296 1.4361 4.9953 0.2155 1.9320 1.5454 1.5805 -6.9981 -1.0776 -3.0008 -0.5567 -2.6158 -0.4247 1.7847 -2.9940 0.1086 -3.2313 -1.9931 -1.2538 3.2794 -1.2419 1.7523 0.0272 4.9328 -0.1255 0.8846 -2.5744 -0.8725 -4.4789 -1.6423 -1.7660 2.0417 3.9238 0.7603 1.2604 2.6949 1.0078 3.2518 1.6038 1.8465 3.9467 0.1613 2.5068
-0.7114 6.7084 0.2515 -0.9194 -2.3831 2.2647 5.2070 0.1825 0.0178 5.2729 0.1306 2.5174 -1.0445 -1.5935 -0.7410 -2.2285 -3.6303 0.1083 -1.8762 -1.6936 -2.0012 -3.0681 -3.6172 -1.1583 1.8514 -2.5974 2.5337 1.9401 -2.7277 0.0953 2.5198 -1.2368 2.4861 2.6449 -1.3828 0.0432 -5.6421 -0.5897 -3.9384 -6.7078 -2.1199 -2.6883 -4.3277 -0.8782 -3.3059 -5.5930 -2.4619 -2.0271 0.7207 4.8171 -0.9712 1.6229 3.6798 -0.9898 2.1946 3.2094 2.6875 3.0519 2.1738 2.6228 0.8342 4.8209 1.4556 3.0113 2.0489 0.1789 -6.7699 -1.1708 -3.6772 -0.8788 -2.9470 -0.0713 1.1374 -2.8572 1.2989 -3.1815 -2.2526 -1.6669 3.4146 -1.1683 1.2990 0.3500 5.3613 0.2001 -0.2456 -2.6939 1.2821 -4.3162 -1.8486 -2.3693 1.6735 3.7691 1.4518 2.0923 3.1732 0.1651 3.4727 1.5887 1.3587 4.4984 0.1870 1.2876
1.6824 8.6090 1.4574 0.6149 -5.1669 0.7396 3.8314 0.3726 -0.7997 4.7446 0.2752 1.5326 -1.0777 -3.2651 -1.4837 -2.3654 -3.3981 0.6486 -2.3690 -3.4696 -2.2480 -3.6347 -3.5884 -0.1592 0.1259 -1.5604 0.8532 1.8822 -2.9493 1.8631 1.1921 -0.6894 0.2141 2.9395 -2.0907 1.1966 -6.1162 -2.3017 -4.0855 -7.0582 -2.1640 -2.0522 -4.7690 -2.5837 -3.5266 -5.8995 -2.3961 -1.4205 3.4757 6.8425 0.5670 3.9736 5.4961 0.3473 1.2175 3.4906 1.9097 1.7171 2.2617 1.6828 1.5147 5.9005 1.6472 3.7203 3.0758 0.5456 -7.2084 -2.1151 -3.4147 -1.1990 -3.9356 -0.1398 0.6447 -2.8901 1.1140 -3.5157 -2.9670 -1.4835 2.4209 -0.7044 1.0546 2.2984 7.0304 1.1868 0.0978 -4.0542 0.6117 -4.6873 -2.6643 -2.1830 1.9668 4.6482 1.4523 3.2581 4.4357 0.7651 2.9649 2.0422 0.9712 3.6165 0.4735 0.6357
0.1735 8.0117 0.8134 0.9862 -5.4561 0.4367 4.0537 0.2124 -0.3979 4.6187 0.2688 2.0442 -0.6026 -3.1104 -1.6690 -1.9969 -4.1713 0.1630 -1.8849 -2.9069 -2.4576 -3.1895 -4.0354 -0.7530 0.2519 -1.9050 0.8267 2.0148 -3.2740 1.8271 1.2924 -0.9053 0.3559 3.0616 -2.2812 1.3629 -6.4557 -1.4172 -1.9569 -4.9565 0.0243 -2.8052 -5.4090 -2.4017 -1.5827 -3.9156 -0.7622 -2.4977 1.7627 6.2809 -0.4502 2.4454 5.0075 -0.5902 1.2978 3.2707 2.5300 1.9392 2.1001 2.3525 0.8135 5.4987 1.6451 2.9615 2.7686 0.2319 -6.2692 -0.2776 -2.5434 -0.7214 -4.2231 -0.6466 0.8583 -3.2157 0.9621 -3.0275 -2.8279 -1.5528 2.4634 -0.9195 1.2782 0.9850 6.5119 0.6209 0.4603 -4.3506 0.2822 -4.1389 -2.0587 -1.8761 1.4406 4.3134 1.5265 2.2982 4.0559 0.3498 2.7651 1.8353 1.1842 3.6238 0.3395 0.9860
1.6352 7.9675 1.3521 -1.5941 -1.1251 2.0191 5.0941 -0.0010 -0.1343 5.1848 -0.4116 2.3305 -3.1728 -1.1639 -0.2190 -1.8406 -3.2009 -0.6471 -3.9675 -1.4388 -1.4825 -2.6054 -3.3937 -1.9401 1.0805 -1.9827 2.1839 1.1062 -1.7982 -0.2650 2.1373 -0.8993 2.2719 2.1971 -0.7469 -0.1740 -6.0006 -4.7832 -4.2815 -7.3131 -3.2794 -3.2538 -4.8026 -4.3846 -3.4981 -6.3194 -2.8401 -2.4684 2.4879 5.9732 -0.2054 2.9773 4.6257 -0.4383 3.0839 3.3301 3.0803 3.5649 2.1000 2.8233 2.4139 5.4953 2.1748 3.6710 2.4387 0.4000 -7.1871 -4.2712 -4.1934 -1.7614 -1.7251 -0.3068 0.3252 -1.8542 0.9554 -3.9637 -2.8685 -1.7968 3.0032 -0.9431 1.0618 2.2217 6.3844 1.0458 -1.0243 -1.5314 1.0058 -4.9760 -3.3868 -2.6076 2.8680 4.2451 1.9724 3.1669 3.7878 0.5978 3.8704 1.6486 1.4737 4.4390 0.0335 1.1636
2.3405 8.5441 2.6336 0.2687 -4.5251 -0.0682 3.0206 0.7168 -1.3018 4.8190 0.2310 0.3725 -2.4654 -4.4567 0.1786 -1.8572 -2.1354 -0.5558 -3.8950 -4.1681 -0.2480 -3.3225 -1.9058 -0.8517 0.2148 -1.3312 1.5991 2.0281 -2.9461 1.3800 0.9645 -0.3656 0.6926 2.7542 -2.0043 0.4333 -6.4837 -4.1343 -3.8215 -6.0141 -1.9525 -4.0594 -5.5108 -4.3023 -2.7091 -5.1150 -1.9657 -3.0658 3.0194 6.9531 0.5998 3.2713 5.6583 -0.0083 2.5764 3.3924 2.8977 2.8000 2.2128 2.2878 2.4828 5.8260 2.6832 3.3454 3.2195 0.1282 -6.7428 -3.0411 -4.4663 -1.6585 -3.2035 0.5078 0.5970 -2.7083 1.3338 -3.9016 -3.1631 -1.3049 2.4299 -0.6022 0.8156 2.6382 7.0280 1.8861 -0.1794 -3.5496 0.5367 -4.8575 -3.1901 -2.3175 2.7161 4.6203 2.1319 3.1255 4.5320 0.7141 3.1501 2.1161 0.8795 3.4409 0.6003 0.0863
-0.3043 6.9267 1.5557 -0.8543 -2.4806 3.2440 4.4339 -0.0039 -1.1984 5.4555 -0.2217 1.0763 -2.0089 -3.5062 0.2935 -1.6792 -1.0280 0.1632 -3.3120 -3.3419 -0.4616 -2.9620 -0.9301 -0.6400 1.8166 -2.4030 2.4208 1.0123 -2.4380 0.1245 2.7624 -1.2685 2.1009 1.9346 -1.2919 -0.2382 -5.0652 -3.0880 -4.4651 -5.4720 -0.9318 -3.9868 -4.1605 -3.2566 -3.2985 -4.7071 -0.9567 -2.8867 0.3223 4.9944 -0.1772 1.0353 3.7964 -0.5842 3.0631 3.1325 2.5005 3.7130 2.0327 2.0761 1.4538 4.8922 1.9697 2.6375 2.0132 -0.1219 -5.6903 -2.0073 -4.8104 -1.7312 -2.2390 1.0629 0.6825 -2.3562 1.5300 -3.2301 -2.1823 -1.3503 3.1284 -1.2597 0.6553 0.5264 5.5147 1.0448 -0.5975 -2.3776 2.0419 -4.0164 -2.1793 -2.5013 2.1215 3.7825 1.6041 1.9030 3.2078 0.2594 3.5097 1.4679 0.7498 4.2792 -0.0128 0.2474
0.1221 7.6598 -0.4173 1.3362 -5.4990 -0.5159 4.5094 0.3614 2.1255 2.4382 -0.2911 3.3604 -0.9798 -3.7351 -2.0840 -1.3607 -3.4858 0.4155 -2.4604 -3.4875 -2.2684 -2.8180 -3.2078 0.1035 2.9009 -3.2434 0.0611 0.9971 -1.8943 -0.6234 3.1926 -2.2860 1.1962 1.2248 -0.9460 0.5370 -5.6164 -0.0161 -0.9863 -5.2703 -0.5211 -3.1467 -4.5568 -0.9456 -0.5173 -4.2983 -1.3972 -2.8588 1.1720 5.3289 -1.1901 1.7190 4.0063 -0.9434 1.5391 3.8935 2.8015 2.0265 2.6530 2.9851 0.9003 5.6225 1.2045 2.3508 2.2155 0.5947 -5.9767 0.1927 -2.2127 -0.6818 -4.2621 -0.6961 1.4952 -3.2059 -0.2612 -2.9302 -2.5931 -1.2161 2.6692 -0.9193 0.9027 0.7767 6.0953 -0.1599 0.8103 -4.3841 -0.4989 -3.9354 -1.6651 -1.4728 1.4058 4.3994 1.4463 1.8308 3.5449 0.3158 2.4068 1.7939 1.8731 3.0609 0.2186 2.1462
-0.0184 6.3949 -1.2465 2.1354 -1.7437 -2.6120 4.6832 0.0300 2.8817 2.6352 -0.4153 4.2467 -0.7332 -0.7426 -1.1804 -0.9251 -3.1688 -1.7564 -2.1685 -0.5544 -1.6281 -2.3566 -2.9196 -2.1898 0.9358 -2.5862 0.6925 3.1793 -2.6695 -0.2067 1.3068 -1.4214 1.5858 3.5904 -1.4760 0.6315 -6.4924 -0.6796 -1.1637 -6.4244 -2.9212 -1.2596 -5.0130 -0.5550 -1.2351 -5.0854 -2.9502 -1.3100 1.3137 4.0877 -1.4433 1.9488 2.9049 -0.8887 1.2705 3.4219 2.7646 1.8731 2.3147 3.2371 0.6974 4.7648 0.8070 2.5916 1.5433 1.0313 -7.1786 -1.7779 -1.1886 -0.1219 -1.9031 -1.9254 1.7627 -2.6103 -0.4959 -2.9332 -1.7922 -1.4505 2.7711 -1.4035 1.8762 0.7244 4.9776 -0.6267 1.3603 -2.0532 -1.7032 -4.3229 -1.7087 -1.3403 1.2786 3.6715 1.3328 1.9466 2.7010 0.4416 2.5306 1.3553 2.3652 3.2381 -0.1154 2.9571
1.9014 8.0402 1.1823 -1.7251 -0.7451 1.5437 5.1329 -0.0970 0.2320 4.9130 -0.4805 2.6943 -3.0489 -0.8510 -0.8401 -1.8209 -3.0362 -0.9514 -3.8367 -1.2820 -2.0634 -2.5920 -3.3437 -2.2175 0.8025 -1.8479 2.0899 1.1447 -1.7312 -0.3413 1.8667 -0.7850 2.2813 2.2266 -0.6881 -0.1389 -7.2978 -3.6652 -3.3693 -6.0497 -5.5205 -3.1639 -6.2032 -2.7813 -2.8886 -4.9900 -4.8418 -2.7042 2.8241 5.9731 -0.2314 3.2767 4.6019 -0.3822 2.9384 3.3874 3.1509 3.4023 2.1367 2.9742 2.4536 5.5530 2.1329 3.7825 2.4138 0.5719 -7.2454 -4.9506 -3.5203 -1.6928 -1.5376 -0.7337 0.2134 -1.7435 0.7701 -3.9112 -2.7366 -2.1049 2.8693 -0.8913 1.1868 2.4346 6.4232 0.9733 -1.0908 -1.2849 0.6376 -5.0400 -3.3905 -2.5848 2.8773 4.2823 2.0077 3.3134 3.7837 0.6856 3.8344 1.6422 1.6755 4.3368 -0.0062 1.4460
-0.2136 7.1167 1.1779 0.2348 -4.1696 2.3121 4.2579 -0.1756 -1.0929 5.2041 -0.2998 1.2245 -1.0356 -3.5105 -0.6189 -2.4651 -2.2400 1.0276 -2.2612 -3.6487 -1.5035 -3.6275 -2.4126 0.0695 1.3774 -1.6390 2.7933 0.3712 -1.0319 0.6820 2.7567 -1.7232 2.1461 1.6510 -1.3164 -0.0741 -4.4021 -1.4301 -4.6465 -5.8726 -0.7975 -3.0728 -3.4736 -2.0265 -3.6497 -5.1383 -1.3144 -2.0781 0.1075 4.9043 -0.2845 0.7448 3.6372 -0.5968 3.2172 3.4187 2.2171 3.7862 2.2442 1.8912 1.5686 5.1214 1.6436 2.4161 1.9255 -0.1148 -5.5332 -0.8485 -4.4008 -1.4275 -3.3254 0.8340 0.3074 -1.8909 1.8448 -3.1328 -2.4949 -1.3018 2.7887 -1.0719 0.8234 0.5117 5.6133 0.7830 -0.2091 -3.1811 1.7252 -3.8792 -1.9894 -2.3643 2.1626 3.9467 1.3692 1.7379 3.1730 0.1835 3.3961 1.4981 0.7070 4.0735 -0.0611 0.3443
1.0635 8.0580 -0.5773 0.9038 -5.3475 0.6982 4.3860 0.2949 2.3455 2.0470 0.2067 3.2426 -0.9943 -3.8414 -1.7609 -1.4792 -2.9439 0.5348 -2.4694 -3.7020 -2.0795 -2.9447 -2.8582 0.1546 2.8518 -3.3623 0.4975 1.2079 -2.0016 -0.6811 2.8933 -2.3390 1.6189 1.2373 -0.9817 0.4438 -5.8895 -1.3884 -3.4031 -6.1354 -0.5844 -1.3207 -4.6168 -2.0762 -3.0673 -4.9989 -1.1498 -0.8888 1.1274 6.4036 1.5177 1.3948 5.1270 2.1552 2.6177 3.1427 -0.7827 2.8604 1.9802 -0.1485 1.8491 5.4555 -0.6001 2.1507 2.8106 2.0372 -6.6355 -0.7067 -2.5926 -0.7992 -4.0224 -0.2750 1.5702 -3.3160 -0.1800 -3.0751 -2.6286 -1.2854 2.5922 -0.9947 1.0561 1.3455 6.5551 0.2005 0.6281 -4.2841 0.1366 -4.2136 -1.9912 -1.7830 2.1035 4.2683 -0.0204 1.8650 4.0969 1.4278 2.6049 1.7987 1.2714 2.9514 0.3218 2.1080
1.0758 7.3252 -1.0574 1.8175 -3.5741 -2.3543 4.4235 0.0213 3.1857 2.0880 0.2452 4.0492 -0.8238 -1.4070 -1.2994 -1.2700 -3.8539 -1.3665 -2.2154 -1.1613 -1.8455 -2.6435 -3.5625 -1.9393 0.7194 -2.5718 0.9505 2.9929 -2.7363 0.0799 1.0617 -1.2584 1.6354 3.3557 -1.4232 0.7424 -6.5199 -0.6886 -1.6165 -6.7484 -2.9186 -1.5132 -5.0373 -0.7624 -1.5675 -5.4249 -3.1251 -1.4577 0.3582 5.6114 0.8580 0.5121 4.3974 1.6386 3.5776 2.9458 0.0356 3.7050 1.8535 0.8115 2.3281 4.9934 -0.4224 1.7304 2.3504 2.1703 -7.3454 -1.6863 -1.5955 -0.3239 -2.7500 -1.7714 1.5754 -2.7611 -0.2031 -3.1260 -2.2537 -1.4875 2.5162 -1.2014 1.9524 1.2296 5.8928 -0.1253 1.1173 -3.0775 -1.4682 -4.5010 -1.9985 -1.5124 2.4833 3.8659 0.2956 1.5291 3.5542 1.3816 2.7823 1.5536 1.8969 3.0004 0.1615 2.9194
1.8726 8.1437 2.2185 0.2397 -4.0543 2.2090 3.5625 0.3510 -1.4965 4.7466 -0.3290 0.6056 -1.2099 -3.7969 -0.7275 -2.7999 -2.7894 0.9559 -2.4095 -4.1456 -1.5850 -3.9352 -3.2197 0.0526 0.9042 -1.3612 2.4126 -0.2135 -1.1638 0.2412 2.2627 -1.3686 1.7378 0.8880 -0.1481 0.0491 -6.4063 -1.9545 -3.3044 -4.9326 -2.9022 -4.7082 -5.5575 -2.2197 -2.1152 -4.0774 -3.2069 -3.7221 2.6338 6.5434 0.2210 2.9724 5.2522 -0.3509 2.5025 3.0458 2.6460 2.8541 1.8755 2.0838 2.2123 5.4496 2.3482 3.2722 2.8404 -0.1286 -6.1372 -2.2691 -4.5312 -1.5868 -3.6678 0.7362 -0.1029 -1.8682 1.5054 -3.4881 -3.1930 -1.3380 2.2050 -0.7500 0.3834 2.2709 6.6319 1.5118 -0.3964 -3.2272 1.5534 -4.4034 -2.8790 -2.3410 2.5288 4.2483 1.8319 2.9296 4.1446 0.4121 3.2265 1.7647 0.6808 3.5721 0.2230 -0.0478
-0.3265 7.6565 0.7588 0.8704 -5.4956 0.8502 3.6396 -0.0195 -0.8182 4.7832 0.1050 1.4028 -0.6351 -3.5941 -1.3243 -2.1087 -3.6064 0.7476 -1.8923 -3.3723 -2.1333 -3.2832 -3.2803 -0.1574 0.1996 -1.9490 1.3344 2.0960 -3.3013 2.0702 1.1392 -1.0362 0.5737 3.0430 -2.3803 1.3219 -4.4802 -0.2552 -3.7568 -5.3468 0.0645 -1.7104 -3.5521 -1.3134 -3.2810 -4.5525 -0.8582 -1.1500 0.0633 5.4003 -0.6158 0.6378 4.0803 -0.8098 2.6095 3.7228 2.3596 3.1141 2.4935 2.1423 1.2092 5.5419 1.5208 2.0385 2.2323 -0.0384 -5.3427 0.3949 -3.0420 -0.9568 -4.2489 0.0006 0.7773 -3.2726 1.4727 -2.8188 -2.5690 -1.3447 2.4652 -1.0066 1.2507 0.3413 6.0966 0.4994 0.3064 -4.3986 0.8161 -3.6245 -1.6230 -1.9707 1.7442 4.3179 1.3546 1.4447 3.5493 0.1277 2.8382 1.7383 0.9290 3.5596 0.1862 0.6199
2.1946 7.4904 -0.5377 0.9941 0.3025 -2.1558 4.2985 -0.3027 2.8715 2.0063 -0.3258 3.8647 -1.7894 -0.6950 -0.8274 -1.0975 -2.5827 -2.3152 -3.2310 -0.9562 -1.2144 -2.5616 -2.8359 -2.6193 0.7120 -2.4333 0.1314 2.7188 -1.3359 -0.7741 0.9936 -1.8393 1.4921 3.3044 -1.8696 0.5182 -6.7742 -3.3373 -0.2268 -6.4735 -4.2849 -2.2400 -5.4159 -2.7321 -0.2223 -5.2426 -3.7727 -2.3773 3.6655 5.8374 0.9541 3.9490 4.5574 1.5771 0.8824 2.6299 0.6060 1.2007 1.4563 1.1841 1.5597 4.9340 0.1459 3.3438 2.2441 2.0482 -7.2928 -4.0699 -1.1608 -0.8786 -1.1335 -1.9505 1.3065 -1.6264 -0.9167 -3.4126 -2.3748 -1.5206 2.4336 -1.5543 1.6718 2.5253 6.0100 0.2643 0.5533 -0.7467 -1.6805 -4.6756 -2.9338 -1.3307 1.8140 3.7404 0.7132 3.0741 3.5423 1.4583 2.4590 1.2409 1.8826 2.8560 -0.2428 2.6866
0.7099 6.7586 -1.2655 2.2597 -1.6379 -2.7334 4.1594 -0.1278 3.1027 1.9366 -0.5323 4.1772 -0.7147 -0.6556 -1.6701 -0.8593 -3.1255 -2.2523 -2.1920 -0.5594 -1.9834 -2.3363 -2.9128 -2.5196 0.6295 -2.5199 0.3653 2.9676 -2.6585 -0.2466 0.9202 -1.3732 1.3125 3.2939 -1.4809 0.6517 -6.1938 -1.0029 -0.2813 -6.0165 -3.2303 -0.5039 -4.8257 -0.7638 -0.8088 -4.7677 -3.1550 -0.9833 2.3765 4.6758 -1.1123 2.8701 3.4505 -0.5081 0.4459 3.0752 2.3292 0.9476 1.9509 2.8719 0.6463 4.7729 0.5888 2.7535 1.7405 1.2324 -6.7792 -2.1497 -0.1397 -0.0756 -1.8347 -2.3730 1.6008 -2.5640 -0.7116 -2.8323 -1.8323 -1.6732 2.3326 -1.4246 1.7900 1.3166 5.3076 -0.5798 1.3679 -1.9830 -1.9544 -4.1339 -1.8592 -1.1816 1.0922 3.6379 1.1562 2.2679 2.9470 0.5852 2.1199 1.2817 2.3310 2.7124 -0.2155 2.9879
2.4524 8.2355 1.5541 -2.0656 -0.7332 1.4164 4.9858 -0.0943 0.1259 4.8318 -0.5388 2.5810 -3.3161 -0.9613 -0.9364 -1.8020 -2.9630 -1.1384 -4.1092 -1.5006 -2.1074 -2.6319 -3.3913 -2.3325 0.5564 -1.5311 2.0329 0.9525 -1.5116 -0.3985 1.7220 -0.5791 2.2282 2.0972 -0.5422 -0.1931 -7.3977 -4.3663 -2.7682 -5.8811 -5.6063 -3.8648 -6.3607 -3.4675 -2.1962 -4.8533 -4.8565 -3.4414 3.0493 6.1533 -0.0113 3.3630 4.7540 -0.2470 3.2991 3.4528 3.2703 3.6084 2.1690 3.0138 2.9215 5.6853 2.3673 3.7675 2.4911 0.5896 -7.1971 -5.3802 -3.5490 -1.8789 -1.4671 -0.8722 0.0103 -1.4105 0.6959 -4.0073 -2.9528 -2.1367 2.7156 -0.7727 1.1381 2.8398 6.5933 1.2410 -1.3412 -1.1735 0.5215 -5.0889 -3.7142 -2.5691 3.2101 4.3876 2.1625 3.4437 3.8958 0.7872 3.8631 1.6843 1.6656 4.2419 0.0120 1.3712
2.1894 7.6957 -0.9502 2.0653 -2.7534 -2.5550 3.7600 -0.0171 3.2969 1.3483 0.3503 3.8681 -0.9968 -1.5179 -2.2337 -1.0591 -3.9814 -1.6267 -2.4687 -1.6253 -2.5826 -2.5192 -3.9740 -2.0159 0.1990 -2.2305 0.4888 2.5411 -2.8861 0.2227 0.6209 -0.9523 1.1751 2.9790 -1.6074 0.9108 -6.6350 -3.2916 -0.7837 -6.2199 -1.0868 -0.6606 -5.2592 -3.5994 -1.2474 -4.9457 -1.2296 -1.0520 1.8647 6.3915 1.3575 1.8442 5.1959 2.1816 2.6935 2.6003 -0.3868 2.6947 1.5243 0.4186 2.4147 5.0151 -0.5659 2.1125 2.7802 2.4347 -7.1123 -2.1188 -0.5119 -0.2952 -2.8615 -2.3031 1.2433 -2.7141 -0.3911 -3.0909 -2.6565 -1.7592 1.9278 -1.1460 1.8627 2.1400 6.2999 0.0455 1.1151 -2.7547 -1.7701 -4.4278 -2.5478 -1.3879 2.4024 3.9009 0.1878 2.1044 3.9945 1.6339 2.3799 1.6026 1.8360 2.3896 0.2012 2.8631
2.1623 7.8217 -0.9282 1.9391 -3.2985 -2.3860 3.9828 0.0637 3.1223 1.6337 0.4611 3.8939 -1.0073 -1.8156 -2.2503 -1.2534 -4.0962 -1.1859 -2.4513 -1.9230 -2.6893 -2.7004 -4.0914 -1.6381 0.2095 -2.1203 0.5766 2.5262 -2.8992 0.3325 0.7051 -0.8357 1.2073 3.0237 -1.5830 0.8922 -6.6179 -1.2365 -1.5796 -6.5937 -3.1495 -0.4029 -5.1814 -1.3505 -1.9411 -5.2948 -3.3670 -0.6482 2.0104 6.5005 1.3870 2.0445 5.2982 2.2005 2.6631 2.7154 -0.4461 2.7176 1.6323 0.3489 2.3919 5.1350 -0.5846 2.3074 2.8799 2.4130 -7.3053 -2.0731 -0.8686 -0.4055 -3.1907 -2.0538 1.2246 -2.7181 -0.2694 -3.1945 -2.7183 -1.7164 2.0275 -1.0469 1.8585 2.1791 6.4173 0.0566 1.0244 -3.0816 -1.5877 -4.5408 -2.4462 -1.4867 2.4296 4.0145 0.1588 2.2491 4.0996 1.6242 2.5114 1.7037 1.7870 2.5833 0.2984 2.8036
1.2276 6.7583 -1.1608 1.6441 -0.0079 -2.0310 4.1221 -0.4981 3.6724 1.6622 -0.3012 4.0803 -1.3141 -0.4798 -0.9311 -0.8265 -2.6334 -2.1069 -2.7330 -0.5544 -1.4558 -2.2795 -2.6866 -2.5420 0.9324 -2.5591 0.3566 3.0719 -1.8338 -0.5191 1.0785 -1.7391 1.6065 3.5308 -1.6506 0.9125 -6.7723 -2.0282 -0.7777 -6.2960 -3.7669 -2.1150 -5.3620 -1.5614 -0.7557 -4.9967 -3.4462 -2.1906 0.1641 4.5820 -0.0372 0.2399 3.3300 0.6947 3.9468 3.0653 1.2032 3.9675 1.9189 1.9085 2.5841 4.7551 0.0837 1.5395 1.6226 1.8580 -7.2361 -3.0588 -1.4101 -0.3968 -1.2018 -1.8895 1.6494 -1.9137 -0.7145 -3.1322 -1.9551 -1.6018 2.4951 -1.5227 1.9638 1.2876 5.2621 -0.3227 1.0536 -0.9755 -1.5442 -4.4878 -2.2701 -1.4986 2.6674 3.5985 0.7659 1.4333 2.8526 1.0927 2.7550 1.1946 2.2556 2.7801 -0.2955 3.1499
-0.4453 7.2016 -0.5662 0.9888 -4.4539 1.9061 3.9632 0.0458 2.6407 1.6434 -0.8358 2.3578 -1.3255 -3.8906 -0.4510 -0.8949 -1.7538 0.8385 -2.7598 -3.4308 -0.6026 -2.3076 -1.3195 0.5088 3.0182 -3.6418 0.1848 1.4089 -2.0649 -0.7660 3.8280 -2.5473 0.8576 2.6115 -1.1399 -0.7923 -4.9561 -1.0970 -3.5891 -4.7740 0.6888 -2.2393 -4.0697 -1.9280 -2.7357 -3.9781 0.0449 -1.3745 -0.8894 4.9212 0.7501 -0.5074 3.6072 1.2365 2.9632 3.3477 -0.1612 3.2791 2.1285 0.3144 1.2866 5.1184 -0.3102 1.1237 1.7991 1.4298 -5.3045 0.1319 -3.3752 -0.7183 -3.2573 0.7801 1.6324 -3.2589 0.0270 -2.7657 -1.9774 -0.7084 3.3550 -1.1901 0.4872 -0.0281 5.6402 0.0107 0.7119 -3.6986 0.9713 -3.6151 -1.3455 -1.6081 1.6531 3.9027 0.1362 0.7085 3.1068 0.9489 2.3503 1.3398 1.1114 2.8138 -0.1937 1.7817
4.1497 8.4867 0.7534 0.6949 -4.0025 -1.8493 3.7254 -0.0076 2.9733 1.2604 0.1817 3.3684 -1.9374 -2.0570 -0.9969 -1.7232 -3.5716 -2.9746 -3.3845 -1.8462 -1.3820 -3.2088 -3.3875 -3.2293 2.3210 -2.1859 -0.5146 0.6660 -0.4548 -1.0315 2.3804 -1.7125 0.9215 0.7736 0.0694 0.3930 -7.4527 -3.3979 -0.9260 -6.8261 -5.2659 -2.0045 -6.1184 -2.7651 -1.0886 -5.5754 -4.8229 -2.1952 4.9927 5.9583 0.5592 4.8602 4.5262 0.7669 1.5566 4.4068 2.5381 1.4722 3.0753 2.7122 2.8559 6.2790 1.6676 3.6091 2.6043 1.6149 -7.8133 -4.5636 -1.3606 -1.0842 -2.4196 -2.2015 1.0304 -1.8582 -1.0789 -3.8868 -3.0763 -1.9775 2.1111 -0.2503 0.9719 4.0312 6.7916 0.9917 0.2924 -2.8451 -1.7131 -5.1939 -3.4906 -1.7488 2.7213 4.9551 1.8650 3.7744 4.0315 1.3900 2.5072 2.1625 2.2546 2.4184 0.4527 2.5310
4.0048 8.4865 0.3263 0.5092 -4.6134 -0.6845 3.2122 0.0565 3.5325 0.8547 0.7914 3.1151 -1.7353 -2.1575 -0.9583 -1.5390 -4.1669 -2.4206 -3.0023 -1.7960 -1.6997 -2.8834 -3.8101 -3.0342 2.2739 -2.7386 0.3808 1.1281 -1.0304 -0.9570 2.0709 -1.9012 1.6235 1.0545 -0.1256 0.2653 -7.3121 -2.5246 -1.4498 -7.0045 -4.5267 -2.4198 -5.8593 -2.2137 -1.4594 -5.6738 -4.3766 -2.4776 2.0791 6.7882 1.0466 1.5757 5.4834 1.4354 4.7396 3.4711 1.3245 4.2297 2.2806 1.6925 4.3089 5.8364 0.8750 1.9451 3.1232 1.9316 -7.8750 -3.5962 -1.9108 -0.7985 -2.9617 -1.8437 1.2364 -2.4274 -0.5774 -3.6700 -3.0300 -2.0868 2.1244 -0.4615 1.2502 3.3867 6.9532 0.7859 0.3700 -3.4280 -0.9924 -5.0537 -3.1440 -2.0107 3.8535 4.6203 1.2288 2.4162 4.4366 1.5268 2.8225 2.1040 2.0161 2.2107 0.5987 2.6259
-1.7265 5.7883 0.7903 -0.2866 -1.6590 3.5199 4.3955 -0.1706 -1.2104 5.2240 -0.0625 1.1412 -1.9594 -2.6188 0.8848 -0.7229 -0.5743 0.1510 -3.1523 -2.1473 0.0787 -1.9336 -0.1761 -0.6760 2.3046 -2.2447 2.6265 1.2344 -2.8949 0.5055 3.5848 -2.4160 1.8301 2.3350 -2.2654 -0.3304 -4.2133 -0.5646 -4.3972 -5.4992 -2.0833 -3.3599 -3.2334 -0.5164 -3.2797 -4.7056 -2.1224 -2.2808 0.1141 4.6517 -0.7757 1.1677 3.6917 -1.0548 1.3544 1.9131 2.2409 2.3327 1.0401 1.9381 -0.0752 3.7346 1.4651 2.5852 1.8246 -0.3635 -5.2835 -1.2915 -4.4587 -1.1527 -1.4218 1.3257 1.1257 -2.2256 1.7853 -2.7057 -1.3580 -1.0707 3.4634 -1.7940 0.4991 -0.4815 4.6641 0.4287 -0.0753 -1.7945 2.3126 -3.5139 -1.2851 -2.2080 0.9052 2.8457 1.2211 1.5546 2.8178 -0.1070 2.9241 0.9575 0.6117 4.1151 -0.2423 0.2163
-0.0093 7.7437 1.4248 0.2087 -4.8761 2.2122 4.3888 0.0916 -0.9364 4.5724 0.3220 1.5433 -1.6722 -4.2919 -0.3703 -1.9022 -2.2563 1.1392 -3.0518 -3.9771 -0.9037 -3.2649 -2.0278 0.5135 0.7703 -2.4075 -0.3281 2.2767 -3.2448 1.4357 1.5092 -1.0786 -0.4147 3.2639 -2.3235 0.7529 -4.9831 -0.0217 -2.9976 -4.9187 -1.9864 -4.0823 -4.2608 -0.5613 -1.8169 -4.2729 -2.5992 -3.0810 0.8797 5.5313 2.6290 1.4792 4.2081 2.6345 2.1606 3.7585 -1.0252 2.7099 2.5310 -0.9747 1.1622 5.6067 0.2181 2.4782 2.3177 1.4517 -5.3097 -0.6720 -4.0693 -1.4622 -3.7010 1.0087 0.9187 -3.0554 0.9649 -3.2594 -2.5362 -0.8533 2.6293 -1.0005 0.5554 0.7271 6.1947 1.4701 -0.0389 -3.9390 1.4487 -3.9443 -1.8705 -1.8625 1.7170 4.3813 0.2100 1.8772 3.6417 1.4805 2.8822 1.8017 0.2729 3.7390 0.2966 0.3496
2.5825 8.0479 2.3527 -0.6187 -2.7866 2.6564 4.2228 -0.2177 -1.2685 4.7720 -0.4034 1.1661 -1.5956 -3.4707 -0.3851 -3.0994 -1.6346 0.3745 -2.7696 -4.1122 -1.0953 -4.2416 -2.3101 -0.3558 0.5707 -0.3382 2.1029 -0.0889 -0.8422 -0.1972 1.9574 -0.8782 1.8232 1.2357 -0.1722 -0.4729 -5.3344 -4.3704 -4.6205 -6.8268 -3.1187 -3.5045 -4.2662 -4.1347 -3.6136 -5.9638 -2.8439 -2.5173 2.9789 5.5559 3.2280 3.1965 4.1324 3.0380 3.0904 3.9271 -0.7056 3.3355 2.6107 -0.8386 2.8436 5.8184 0.8175 3.4996 2.2036 1.5701 -6.5436 -3.9069 -4.5907 -2.0967 -2.6790 0.8024 -0.3757 -0.9807 1.2156 -3.7464 -3.0947 -1.4906 2.3231 -0.7035 0.3909 2.8172 6.3587 2.1626 -0.9655 -2.1620 1.6526 -4.6136 -3.3905 -2.5443 3.0460 4.5018 0.6281 3.2402 3.6158 1.7960 3.5682 1.7418 0.3051 3.8662 0.0372 0.1180
1.6680 7.7655 2.7651 -0.5698 -2.7083 3.4009 2.9076 0.3805 -2.1426 4.6693 0.0968 -0.3860 -2.1977 -3.8977 0.6936 -2.1860 -1.3536 0.6946 -3.4779 -3.8277 -0.1143 -3.4409 -1.4083 -0.1490 1.8054 -2.3995 1.9298 0.4469 -2.5458 -0.0954 2.4374 -1.1179 1.4268 1.0300 -1.2420 -0.5980 -5.3389 -1.8232 -4.0626 -4.3865 -3.8446 -4.2777 -4.8152 -1.6379 -2.6846 -3.8298 -3.7925 -3.0591 3.5029 6.2528 1.5471 3.9625 5.0307 0.9099 0.8645 2.9337 1.1688 1.3208 1.8339 0.5441 1.3444 5.2041 1.9148 3.5559 2.7451 0.1439 -5.1584 -2.8526 -4.8277 -1.9717 -2.6266 1.4877 0.4913 -2.5734 1.3534 -3.4507 -2.6305 -0.9471 2.4076 -1.0624 -0.0630 2.2500 6.3303 2.0263 -0.6236 -2.6384 2.1706 -4.0618 -2.6426 -2.1961 1.7556 4.0698 1.3205 3.1334 3.9772 0.7910 2.6851 1.7197 0.0514 3.2704 0.2857 -0.7372
1.3761 7.4173 2.7852 -0.5813 -1.6537 3.3922 3.0329 0.0186 -2.2575 4.7716 -0.0220 -0.4580 -2.3192 -3.3652 1.0048 -1.8974 -0.9485 0.3386 -3.5726 -3.3130 0.1558 -3.1322 -1.0336 -0.5339 1.8321 -2.2363 2.1051 0.5548 -2.6558 0.0923 2.4719 -1.0152 1.4695 1.1452 -1.4257 -0.5671 -4.6683 -4.0406 -4.0477 -5.1101 -1.8411 -4.1458 -3.9738 -3.9216 -2.7389 -4.5407 -1.6004 -2.9564 3.2412 5.5242 2.5316 3.7567 4.2716 2.0088 0.8278 3.1378 -0.0433 1.3587 2.0025 -0.5342 1.1667 5.1278 1.3315 3.5003 2.2811 0.6207 -5.2031 -3.0784 -4.7309 -1.8992 -1.9797 1.4472 0.5246 -2.4805 1.5318 -3.3505 -2.4094 -0.9677 2.5012 -1.1588 -0.0151 2.0044 5.9317 2.2003 -0.5926 -1.9997 2.2080 -3.9452 -2.6888 -2.1945 1.6331 3.9657 0.8390 2.9984 3.5196 1.1898 2.7132 1.5753 -0.2149 3.3752 0.0946 -0.8462
2.2978 8.1734 2.3702 0.3541 -4.3586 2.2091 3.1251 -0.0148 -1.7281 4.4646 -0.1156 0.3791 -1.0339 -3.8034 -0.7880 -2.6677 -3.1438 1.0336 -2.2265 -4.1504 -1.6560 -3.7894 -3.4954 0.0784 1.1626 -1.7022 2.4729 -0.4476 -1.1622 0.6693 1.8870 -0.4744 1.9530 0.6012 -0.4142 -0.1347 -4.9550 -2.1739 -4.4699 -6.5130 -2.2526 -2.8551 -3.8682 -2.5959 -3.5487 -5.6353 -2.6606 -1.9282 3.1051 5.7092 2.9976 3.3517 4.3101 2.7024 2.0814 4.1193 -0.8219 2.3408 2.8181 -1.0528 2.1989 5.9819 0.7591 3.2915 2.4228 1.1636 -6.2039 -2.0084 -4.1692 -1.3938 -3.8814 0.6811 0.1292 -2.1532 1.5606 -3.3485 -3.2888 -1.2975 1.9434 -0.5485 0.4760 2.5593 6.5057 2.0633 -0.2314 -3.4890 1.5594 -4.2384 -2.8712 -2.2821 2.4233 4.6862 0.4726 3.0377 3.8120 1.4928 2.9601 1.9572 -0.0573 3.2378 0.2625 -0.3049
0.1544 6.6599 1.3586 -0.3777 1.1306 2.1804 3.7539 -0.9773 -1.1806 5.0486 -1.0997 0.9495 -2.6902 -0.9656 0.8511 -1.0102 -0.2572 -0.9026 -3.7220 -1.0383 -0.2539 -2.0846 -0.4748 -1.9544 1.2846 -1.0358 2.7541 0.1793 -2.2157 0.9120 2.4154 -1.9780 2.3692 1.4454 -2.2334 0.0833 -4.2776 -3.4056 -4.4314 -5.2929 -4.1508 -2.5745 -3.4760 -2.3968 -3.6860 -4.6163 -3.3066 -1.7841 0.4544 4.5774 -0.2843 1.0238 3.2982 -0.6692 3.2027 2.6049 2.3031 3.6699 1.3998 1.9276 1.7159 4.4737 1.7889 2.4217 1.3576 -0.1753 -5.1583 -4.2174 -3.9377 -1.5874 0.0004 0.4765 0.1771 -1.0879 1.8198 -3.0604 -1.4532 -1.4853 2.6442 -1.9558 0.9058 0.7802 5.1303 0.8963 -0.5331 0.0766 1.5595 -3.6914 -2.3358 -2.3569 2.2610 3.2944 1.4375 1.8874 2.6702 0.1498 3.2701 0.7582 0.6844 3.7879 -0.8464 0.2687
0.5822 7.2510 2.2384 -0.8009 -2.0000 3.6165 3.2043 -0.0798 -1.9128 4.9286 -0.4488 -0.1395 -2.3700 -3.3701 0.9004 -1.9661 -0.8644 0.6535 -3.4851 -3.2242 -0.1163 -3.1016 -0.8520 -0.3440 1.6910 -2.3709 2.3464 0.4614 -2.6026 0.2568 2.4939 -1.2270 1.7537 1.1669 -1.3915 -0.3125 -4.5313 -1.3667 -4.4245 -3.8918 -3.5184 -4.3562 -4.1504 -1.1306 -3.0086 -3.4834 -3.4340 -3.0818 0.3658 5.3535 0.3699 0.7354 4.0915 -0.2478 3.4567 2.9778 2.0810 3.7949 1.8342 1.4589 2.0466 4.9669 2.0787 2.1238 2.0805 -0.3168 -4.4276 -2.4808 -5.0770 -2.0271 -2.0593 1.5823 0.4015 -2.4966 1.7010 -3.1700 -2.1356 -1.0352 2.5340 -1.3080 0.2647 0.9975 5.7684 1.4810 -0.7553 -2.1699 2.3961 -3.6293 -2.1840 -2.3486 2.4000 3.7977 1.5151 1.7127 3.3374 0.2888 3.1357 1.3862 0.2411 3.5570 -0.1298 -0.5026
0.7135 7.0939 2.4084 -0.9116 -0.7563 3.2168 3.5944 -0.2542 -1.7615 5.0550 -0.6492 0.2298 -2.6925 -2.6620 1.0558 -1.9220 -0.4917 -0.0374 -3.8140 -2.6840 0.0450 -3.0435 -0.6737 -1.0436 1.3839 -2.1368 2.3962 0.3436 -2.3518 0.2279 2.3981 -1.1551 1.8401 1.2819 -1.3252 -0.3657 -5.1136 -3.9682 -3.9042 -3.7067 -2.4860 -4.8346 -4.7477 -3.5611 -2.5235 -3.2720 -2.0408 -3.6471 0.1080 4.7023 1.3821 0.4495 3.3908 0.8589 4.1841 3.4782 1.2045 4.4587 2.2557 0.7131 2.4709 5.1298 1.7471 2.1177 1.7121 0.2575 -4.6488 -3.4694 -5.0053 -2.1418 -1.2655 1.2491 0.1524 -2.0875 1.6395 -3.3458 -2.0928 -1.2031 2.5796 -1.3274 0.3666 1.0794 5.5323 1.7987 -0.9004 -1.3084 2.1142 -3.8332 -2.5762 -2.4151 2.8001 3.9167 1.2684 1.7378 3.0069 0.7917 3.4181 1.3545 0.2472 3.7670 -0.2499 -0.3173
4.0111 8.6520 1.5389 -2.7302 -0.3957 0.7544 4.5262 0.0215 -0.0321 4.2858 -0.4917 2.4047 -2.3332 -2.1131 -1.7060 -3.3267 -3.1670 0.3528 -2.8866 -3.2740 -2.5019 -3.8827 -4.2617 -0.5392 0.5089 -1.5294 -0.0895 -0.1628 0.1855 1.5490 1.9048 -1.5082 0.5002 1.2536 0.1928 2.0912 -6.3648 -4.7541 -4.6838 -7.3642 -5.2356 -2.7321 -5.1616 -4.1945 -4.0151 -6.3465 -4.7500 -2.0068 3.5629 6.5080 0.0122 3.4668 5.0781 -0.2229 4.3783 3.7679 3.1708 4.2836 2.4514 2.9053 4.1915 6.0477 2.3126 3.6374 2.7734 0.5685 -7.4072 -5.2578 -4.1032 -2.1086 -2.4873 -0.2503 -0.4919 -1.0450 0.8480 -4.1237 -3.7295 -1.8770 2.1815 -0.1362 0.9851 3.9096 6.9672 1.2265 -1.8373 -1.2038 0.5006 -5.1577 -4.2273 -2.6670 4.1042 4.7204 2.1078 3.7218 4.2102 0.7738 3.9163 1.9415 1.5929 3.8414 0.2445 1.2319
-0.4934 6.8436 1.8849 -0.2771 -2.9371 3.5121 3.9066 -0.2915 -1.8652 4.9824 0.0931 0.3579 -2.0445 -3.5554 0.7493 -1.4652 -1.0832 0.8295 -3.3077 -3.1725 0.0081 -2.7262 -0.8205 0.0293 2.1732 -2.6644 2.1500 0.9045 -2.8325 0.0699 2.7354 -1.3277 1.7100 1.4947 -1.5137 -0.4017 -4.5073 -2.5744 -4.1686 -4.2977 -0.3634 -3.8434 -3.9490 -2.9005 -2.8310 -3.8007 -0.5185 -2.6083 1.1458 4.8921 2.6825 1.9522 3.7040 2.4650 1.3051 3.1046 -1.1803 2.0711 2.0096 -1.3398 0.4893 4.8281 0.3452 2.8094 1.9555 0.9924 -4.6716 -1.3920 -4.6709 -1.5350 -2.3965 1.5783 0.8893 -2.8906 1.5215 -3.0420 -1.9832 -0.7926 2.8280 -1.3084 0.2263 0.4491 5.4266 1.6655 -0.2539 -2.7521 2.2923 -3.6162 -1.8513 -2.0526 1.2348 3.7289 0.1299 2.0066 3.1397 1.2445 2.8374 1.4278 -0.2483 3.7727 -0.0242 -0.4415
-1.6659 6.5102 0.3841 0.4012 -5.1290 1.6735 4.9560 0.2052 0.0017 4.3284 0.3233 2.4213 -1.4667 -3.9410 -0.7289 -1.3769 -2.1445 1.0596 -2.8055 -3.3710 -1.1540 -2.7195 -1.6617 0.5545 1.2019 -2.3289 -0.4337 2.6344 -3.5899 1.1099 2.3658 -1.3556 -0.5167 3.5157 -2.3868 1.3883 -4.4559 1.0479 -2.3952 -4.5968 -0.6707 -3.8346 -3.7187 0.2433 -1.3887 -3.9513 -1.5075 -3.0106 -1.2062 4.0685 1.3719 -0.3833 2.8903 1.5887 2.7069 3.8806 -0.2931 3.4428 2.7786 -0.0625 0.5972 5.0432 0.0718 1.7142 1.6696 1.2751 -4.8840 0.6400 -3.5477 -1.1430 -3.6007 0.7131 1.2946 -3.2188 0.7115 -2.8299 -1.9404 -0.8727 2.9409 -1.1379 0.8325 -0.7308 5.0962 0.6481 0.2523 -4.0682 1.0627 -3.5066 -1.0507 -1.7019 1.3688 3.9590 0.2658 0.8560 2.8260 1.0670 2.9404 1.6569 0.7141 3.9234 0.2645 1.0251
3.3290 8.2729 3.6203 -0.0359 -4.2877 0.6547 3.0993 0.7820 -1.7184 4.7198 0.3642 0.1384 -2.7438 -4.1677 0.4134 -2.0519 -2.1982 -0.9429 -4.1542 -3.9991 -0.1240 -3.4951 -2.0537 -1.3867 -0.1419 -0.6719 1.0018 1.6378 -2.2783 1.5308 0.8156 0.0651 0.0741 2.5418 -1.6003 0.5213 -6.9362 -4.7727 -3.4448 -5.9401 -3.1367 -4.6130 -5.9953 -4.6370 -2.3001 -5.0157 -2.9267 -3.6657 3.5138 5.6242 3.9065 3.5361 4.2616 3.4044 3.0729 4.8755 -0.2649 3.0976 3.5953 -0.6830 3.1998 6.4161 1.6316 3.4047 2.6707 1.5560 -6.9432 -4.0682 -4.5319 -1.9572 -2.8581 0.4236 0.2485 -2.0611 1.1791 -4.1041 -3.3779 -1.4429 2.2259 -0.1462 0.5097 3.3544 6.6517 3.0551 -0.4972 -3.1468 0.7371 -5.0583 -3.6741 -2.4139 3.2183 5.1572 1.1540 3.3925 4.0242 2.0875 3.2517 2.4730 0.2305 3.4106 0.8288 -0.2976
5.7441 7.3627 1.0315 2.0268 -2.9162 -2.4547 -0.5677 1.0292 2.7506 -0.3571 1.0575 0.2476 -1.1717 -1.6229 -1.9555 -0.9857 -4.1452 -1.7700 -2.6198 -1.8069 -2.3716 -2.3875 -4.2285 -2.3333 0.1024 -2.3558 0.5810 2.4893 -1.9541 0.1228 0.5117 -1.6994 1.8855 2.3041 -0.5295 0.5927 -6.3562 -4.2680 -0.4299 -6.7392 -2.3771 -1.5798 -4.9020 -4.2452 -0.7298 -5.4581 -2.2585 -1.9571 3.5533 6.2595 -0.0266 2.5086 5.2520 -0.0909 3.4332 3.1379 2.8670 2.4469 2.2274 2.7764 4.4564 5.1450 1.9324 1.4446 3.2304 0.7755 -7.2345 -3.3899 -0.7970 -0.3310 -2.8564 -2.2149 1.2258 -2.4931 -0.3311 -3.1421 -3.0721 -1.8695 1.2340 -0.4311 1.6202 4.4835 6.2020 0.9413 1.0775 -2.7530 -1.6839 -4.4728 -3.2285 -1.5034 3.4938 4.2063 1.8848 2.4692 4.2612 0.8192 1.4557 2.2604 1.7104 0.2647 1.0001 1.5600
4.5022 8.0294 0.5138 1.5342 -2.0749 -3.3785 2.5353 -0.0423 3.2650 0.0923 0.5028 3.2055 -1.6505 -1.4056 -2.3506 -1.1034 -3.8848 -2.2617 -3.0972 -1.7898 -2.5803 -2.5756 -4.1593 -2.4783 2.3700 -1.6070 -0.7671 0.1101 -2.2891 -0.0354 2.3741 -0.4230 0.1786 0.6446 -1.7917 1.2917 -6.5229 -2.7650 0.0130 -6.3154 -4.8777 -0.7202 -5.2361 -2.3437 -0.5977 -5.1556 -4.6244 -1.3412 5.0699 5.4614 0.9687 4.7157 4.0904 1.2897 0.9810 4.3782 1.4814 0.7016 3.1044 1.8161 2.7108 6.0386 1.0048 3.0439 2.4006 1.8416 -7.0583 -3.9431 -0.0443 -0.7157 -2.5168 -2.7835 1.0261 -1.9987 -1.1262 -3.3614 -3.0639 -1.9254 1.2097 -0.4344 1.1013 4.1083 6.3913 0.8420 0.7194 -2.1921 -2.4608 -4.5815 -3.2874 -1.3024 2.3694 4.7714 1.3036 3.4256 3.7497 1.4640 1.7409 2.1085 2.0277 1.3884 0.4881 2.5450
5.2281 7.7949 3.3196 0.0940 -3.7358 2.3773 1.2940 1.8727 -1.8059 3.0115 0.1656 -1.1863 -1.2504 -3.9041 -0.6077 -3.1019 -3.2336 0.9847 -2.2980 -4.5947 -1.4527 -4.0799 -3.9188 0.0475 -1.1930 -0.9738 0.4212 0.3846 -0.9523 2.2794 -0.1060 -0.4864 -0.5182 1.4723 -0.4410 1.3500 -5.2012 -3.9562 -4.6677 -6.5088 -2.8362 -3.2265 -4.1660 -4.2290 -3.6369 -5.6480 -2.9935 -2.2121 3.2963 6.9281 1.6934 2.5976 5.9044 0.9363 4.7203 2.9125 1.7113 4.0408 1.9964 0.9953 4.8914 5.2468 2.4194 2.3617 3.5857 0.2011 -6.3162 -3.3199 -4.4955 -1.7031 -3.7961 0.8328 -0.6195 -1.6934 1.5434 -3.5616 -3.8814 -1.3166 0.8708 0.3502 0.2377 4.3917 6.6087 2.4030 -0.6573 -3.0778 1.6533 -4.4215 -3.7545 -2.4013 4.2523 4.2888 1.7218 3.0422 4.6338 0.9456 2.8489 2.3283 0.2274 2.0340 1.1614 -0.7742
6.6006 6.8450 3.5575 0.4206 -4.0107 1.7547 -0.5277 2.1467 0.2153 1.0436 2.5698 -1.6890 -1.2838 -4.2177 -1.2104 -2.4599 -2.7383 0.4391 -2.6379 -4.7396 -1.6535 -3.7778 -3.2983 -0.0520 1.6022 -1.5827 1.0936 0.0378 -1.4640 -0.8155 1.3602 -0.0918 1.1621 1.0161 -0.4108 -1.2949 -6.1060 -4.1150 -4.2436 -7.2215 -3.5383 -2.3841 -4.7841 -4.0436 -3.5667 -6.1024 -3.4594 -1.6515 5.9915 5.4805 1.3446 5.1290 4.6380 0.5352 2.2473 4.1575 2.8878 1.4640 3.4090 2.0884 4.3400 5.3957 3.1243 3.0454 3.4066 0.2227 -7.2645 -3.8929 -3.7084 -1.3628 -3.7517 0.2235 0.5778 -2.2270 0.2971 -3.6665 -3.7177 -1.4496 1.4100 0.5067 -0.1946 5.6081 5.8421 2.5807 -0.0410 -3.3485 0.8216 -4.8082 -3.7573 -2.2501 3.5305 4.6166 2.3833 3.9451 4.2213 1.0206 1.8516 3.0450 0.7342 0.8229 2.1248 -0.3222
5.9350 7.8613 3.7152 -2.6687 -1.4652 1.6685 1.4686 2.0955 -1.3519 3.5875 0.8085 -1.0127 -2.1410 -2.5180 -1.2402 -3.1259 -3.9648 0.5684 -2.6615 -3.5220 -2.2445 -3.6630 -4.8758 -0.5202 -0.1163 -0.4368 2.0515 0.6978 -2.1117 0.4618 0.3135 0.6653 1.1025 1.2247 -0.9954 -0.4300 -6.1697 -4.4399 -4.6762 -7.1116 -5.4477 -2.9051 -4.9689 -4.0353 -3.9007 -6.0891 -5.1415 -2.0937 6.0687 6.2922 1.5572 5.6042 5.2068 0.7101 2.6496 4.0196 2.6879 2.2632 3.0144 1.8810 4.2487 5.8195 3.0937 4.0317 3.3922 0.2416 -7.1842 -5.1128 -4.2339 -1.9191 -3.1452 0.1261 -0.3892 -1.6513 1.3106 -3.8980 -4.1011 -1.7332 1.5358 0.2136 0.3869 5.4166 6.5812 2.6962 -1.7170 -2.0072 1.1039 -4.9312 -4.4237 -2.6099 3.8110 4.8101 2.3188 4.5236 4.4865 1.0649 2.9635 2.6759 0.6530 2.4106 1.4530 -0.4473
5.0138 7.9569 3.1643 -2.3778 -1.1610 2.7281 3.3013 0.6610 -1.5523 3.6716 -0.7077 0.5087 -2.3375 -3.3268 0.1959 -3.7238 -1.3610 -0.4968 -3.3513 -4.2378 -0.4696 -4.6895 -2.3170 -1.1622 -0.7920 -0.6208 -0.4949 -0.5677 0.6630 1.5866 0.7152 -0.7819 -0.5555 0.9360 0.4657 1.5381 -5.9853 -4.7134 -4.5139 -4.7480 -6.4228 -3.7434 -5.4285 -3.7635 -3.5196 -4.1760 -5.6744 -2.7901 3.3394 6.6192 1.5663 2.8607 5.4183 0.9023 5.3296 2.9073 2.1914 4.8577 1.8196 1.5550 5.0971 5.3011 2.5993 3.0398 3.0231 0.4416 -5.6886 -5.9684 -4.6331 -3.0335 -2.0640 0.6449 -1.2338 -0.4026 0.8693 -4.0015 -3.5408 -1.5826 1.3745 0.3683 0.1199 4.4128 6.5584 2.3725 -2.1827 -1.1755 1.5104 -4.5601 -4.2790 -2.6265 4.6626 4.1822 1.9917 3.4887 4.2431 1.0942 3.6912 1.8682 0.6874 3.0855 0.4629 -0.1274
6.5036 6.5855 4.3157 -0.7786 -2.7114 2.6073 0.4981 3.0705 -1.1880 2.5221 1.8070 -1.9549 -1.8400 -4.1215 -0.2215 -3.1498 -2.0074 0.1339 -3.1060 -4.7719 -0.7472 -4.3654 -2.7084 -0.4419 -0.3473 -1.3946 -0.7428 1.0563 -1.1457 1.2722 -0.0144 0.0095 -1.2196 1.8504 -0.2405 0.3518 -5.5768 -5.4045 -4.3102 -7.0353 -3.9654 -3.3906 -4.5082 -5.0662 -3.3336 -6.1720 -3.5931 -2.4358 6.2024 5.6654 1.8262 5.5013 4.9228 0.7936 2.6346 3.5385 2.7770 1.9973 2.8958 1.7808 4.5181 4.9525 3.4253 3.6248 3.5388 0.0699 -6.7687 -4.8989 -4.3596 -2.2015 -3.0146 0.7404 -0.2137 -1.5451 0.6945 -3.9643 -3.7655 -1.3713 0.9154 0.7066 -0.2947 5.7249 5.6808 3.0825 -0.9991 -2.4200 1.4286 -4.8366 -4.1714 -2.3804 3.8576 4.2640 2.4766 4.3725 4.2534 1.0909 2.4971 2.8847 0.4138 1.6011 2.1704 -0.8889
5.9577 6.5512 4.3658 1.0092 -3.8610 1.2394 0.2277 2.6555 -1.6462 2.4092 1.4572 -1.8697 -1.1009 -3.6326 -1.3665 -2.4045 -3.6213 0.8033 -2.2976 -4.2968 -2.0169 -3.5545 -4.2565 0.0530 -1.0026 -1.0112 0.2151 1.0395 -1.0849 1.5678 -0.3011 -0.1169 -0.7886 1.7354 -0.1994 0.5499 -7.0861 -3.7758 -2.4484 -5.7646 -3.3424 -4.2114 -5.9331 -3.9251 -1.5244 -4.6418 -3.4345 -3.4851 5.3904 4.1044 3.4656 4.6854 3.1666 2.6112 2.4370 5.5074 0.7331 1.8146 4.5989 -0.0420 4.1150 5.9148 2.4654 3.0497 2.6972 0.8657 -7.0324 -3.5134 -3.7154 -1.0813 -3.8997 0.1236 -0.0407 -1.8203 0.9429 -3.5197 -3.8530 -1.3510 0.7288 0.6952 -0.0845 5.1189 5.4180 3.3876 0.0664 -3.1955 0.8044 -4.7100 -3.7715 -2.0696 3.4520 5.0546 1.6702 3.7580 3.6107 1.7435 2.1089 3.1748 0.0271 1.3673 2.0051 -1.0145
7.2615 6.2179 3.8833 0.2283 -3.2884 1.7148 -0.2898 3.1725 0.2229 1.3577 2.7679 -1.6152 -1.6055 -4.3127 -0.8821 -2.7568 -2.3337 0.1726 -2.9716 -4.9400 -1.0795 -4.0879 -3.0038 -0.1180 -0.4248 -1.1456 -1.1331 1.6135 -1.4046 0.2272 -0.5380 0.3195 -0.7548 1.8764 -0.0213 -0.3421 -7.1178 -3.5754 -3.2492 -6.1629 -5.5540 -3.7101 -6.0413 -3.1894 -2.2999 -5.1420 -5.3377 -2.8693 6.0828 5.8536 1.5177 5.0747 5.2820 0.6440 3.0757 3.2849 3.1109 2.1767 2.7584 2.2562 5.0430 4.7147 3.3961 3.1135 3.8761 0.2956 -7.1949 -4.6767 -3.9267 -1.6557 -3.3616 0.2879 0.2996 -1.9054 -0.1340 -3.9657 -3.8871 -1.2770 0.6909 0.8333 -0.0884 6.0640 5.5790 2.8328 -0.3011 -2.8390 0.6946 -5.0665 -4.0998 -2.1043 4.1069 4.1721 2.5947 4.1284 4.4684 1.1474 2.1971 3.0431 0.8285 0.9317 2.5328 -0.2435

>  <OB_ATOM_TYPES> (1ql7A1)
Cl O.2 O.2 O.2 C.3 C.3 C.3 C.3 C.3 C.3 C.3 C.3 C.ar C.ar C.ar C.ar C.ar C.ar C.ar C.ar C.ar C.ar N.ar C.3 N.am N.pl3 N.3 C.ar C.2 C.ar C.ar C.ar C.ar S.O2

>  <ENSEMBLE_RMSD> (1ql7A1)
0.707 1.447 1.544 1.602 1.616 1.670 1.712 1.731 1.735 1.738 1.826 1.834 1.858 1.927 1.931 1.956 2.014 2.026 2.058 2.084 2.089 2.109 2.111 2.138 2.151 2.270 2.343 2.350 2.350 2.366 2.392 2.413 2.438 2.444 2.455 2.470 2.474 2.494 2.498 2.531 2.561 2.678 2.720 2.980 3.051 3.143 3.226 3.303 3.326 3.383

$$$$
