
 OpenBabel03071213D

 21 23  0  0  0  0  0  0  0  0999 V2000
   26.9570   39.8980   83.2930 C   0  0  0  0  0
   27.6460   38.5070   85.4450 C   0  0  0  0  0
   26.0500   40.2190   85.7040 C   0  0  0  0  0
   22.4580   35.0320   82.3980 N   0  0  0  0  0
   17.8600   36.6550   86.8930 Cl  0  0  0  0  0
   20.3660   35.7620   86.1120 C   0  0  0  0  0
   19.7750   38.0810   85.5950 C   0  0  0  0  0
   21.5890   35.9510   85.4520 C   0  0  0  0  0
   21.0480   38.2860   84.9010 C   0  0  0  0  0
   25.9990   35.6530   81.7810 C   0  0  0  0  0
   24.7390   35.1270   81.7880 N   0  0  0  0  0
   26.3410   36.6570   82.5560 N   0  0  0  0  0
   24.0960   38.3650   84.7990 N   0  0  0  0  0
   25.3550   38.2130   84.2400 N   0  0  0  0  0
   19.4670   36.8480   86.1570 C   0  0  0  0  0
   23.7410   35.5340   82.5440 C   0  0  0  0  0
   21.9410   37.1830   84.8550 C   0  0  0  0  0
   25.3570   37.1410   83.3590 C   0  0  0  0  0
   23.2900   37.3920   84.3180 C   0  0  0  0  0
   24.0410   36.6380   83.4210 C   0  0  0  0  0
   26.5070   39.1390   84.6030 C   0  0  0  0  0
  1 21  1  0  0  0
  2 21  1  0  0  0
  3 21  1  0  0  0
  4 16  1  0  0  0
  5 15  1  0  0  0
  6  8  2  0  0  0
  6 15  1  0  0  0
  7  9  1  0  0  0
  7 15  2  0  0  0
  8 17  1  0  0  0
  9 17  2  0  0  0
 10 11  2  0  0  0
 10 12  1  0  0  0
 11 16  1  0  0  0
 12 18  2  0  0  0
 13 14  1  0  0  0
 13 19  2  0  0  0
 14 18  1  0  0  0
 14 21  1  0  0  0
 16 20  2  0  0  0
 17 19  1  0  0  0
 18 20  1  0  0  0
 19 20  1  0  0  0
M  END
>  <MOLID> (1qpeA1)
1qpeA1

>  <SMILES_CANONICAL> (1qpeA1)
Clc1ccc(cc1)c1nn(c2c1c(N)ncn2)C(C)(C)C	

>  <FINGERPRINT> (1qpeA1)
0000000000000000101000000000011000000000000000000000100000001000111000000000000000000001000000000000100000001101000001100000000000000001000010000000000000000000000000000000000011100000000001100000000001000000100000100000000000000000000000000000100000000000000000000000000000000001000000000000000100000000000010001100000000000000000000000000000000001100011000000000000110011000000000000000001000000000000100000001010100000000100000000000000000000000000000000000000000000000100000000001000000001100001000000100110000000000001000101000000000000000000000101000000000000000000000000000010001000000000000000000000000000000001000100000000000000000100000000000000000000000000000000001110000000011000000010100000000110001100000000000100001000011000000100101000001000000000111000000000000000100001010000000000110000000000010000000001000000000000101000000011100000010000000000000000000000000000010000110000000000001000000000100000100001100000000000100011000010000000000001100000000000000000000101000000000000011000000100000000011100000

>  <MACCS166> (1qpeA1)
000000000000000000001000010000000000010000001000010100000000010011000000011111110011001000000101011000101010000100000011110110000110111010001100100110100001010110101000

>  <OB_MW> (1qpeA1)
301.109

>  <OB_logP> (1qpeA1)
4.0651

>  <OB_PSA> (1qpeA1)
69.62

>  <OB_MR> (1qpeA1)
85.7394

>  <OB_ATOMIC_CHARGES> (1qpeA1)
0.0244740925 0.0244740925 0.0244740925 -0.1069902646 -0.0822444514 0.0114433793 0.0114433793 0.0024204979 0.0024204979 0.2015257682 -0.205546543 -0.2050185933 -0.1679940926 -0.2377008297 0.0576728272 0.1758073575 0.0195856752 0.1653000184 0.1066513778 0.0896081117 0.0881936067

>  <MCT_HBD> (1qpeA1)
1

>  <MCT_HBA> (1qpeA1)
5

>  <ENSEMBLE_TOTAL> (1qpeA1)
2

>  <ENSEMBLE_COORDS> (1qpeA1)
3.4035 2.6465 -1.0029 4.0925 1.2555 1.1491 2.4965 2.9675 1.4081 -1.0955 -2.2195 -1.8979 -5.6935 -0.5965 2.5971 -3.1875 -1.4895 1.8161 -3.7785 0.8295 1.2991 -1.9645 -1.3005 1.1561 -2.5055 1.0345 0.6051 2.4455 -1.5985 -2.5149 1.1855 -2.1245 -2.5079 2.7875 -0.5945 -1.7399 0.5425 1.1135 0.5031 1.8015 0.9615 -0.0559 -4.0865 -0.4035 1.8611 0.1875 -1.7175 -1.7519 -1.6125 -0.0685 0.5591 1.8035 -0.1105 -0.9369 -0.2635 0.1405 0.0221 0.4875 -0.6135 -0.8749 2.9535 1.8875 0.3071
4.0116 1.0479 1.0221 2.5674 3.0331 1.1575 3.5638 2.4141 -0.9820 -1.2122 -2.0242 -1.7267 -5.6395 -0.9063 2.3439 -3.7880 0.6788 1.1310 -3.0833 -1.5229 1.8809 -2.5625 0.9379 0.6378 -1.7485 -1.2282 1.3890 2.2111 -1.4503 -2.6255 1.0251 -1.9788 -2.6435 2.6494 -0.4251 -1.8214 0.6639 1.0988 0.7528 1.8295 1.0094 -0.0164 -4.0554 -0.6029 1.7579 0.0812 -1.5175 -1.7347 -1.5213 -0.0672 0.7486 1.7800 0.0074 -0.9744 -0.1630 0.2004 0.2697 0.4251 -0.5621 -0.8586 2.9655 1.8578 0.2918

>  <OB_ATOM_TYPES> (1qpeA1)
C.3 C.3 C.3 N.pl3 Cl C.ar C.ar C.ar C.ar C.ar N.ar N.ar N.ar N.ar C.ar C.ar C.ar C.ar C.ar C.ar C.3

>  <ENSEMBLE_RMSD> (1qpeA1)
0.000 1.452

$$$$
