
 OpenBabel03071213D

 21 21  0  0  0  0  0  0  0  0999 V2000
   33.8890   18.6090   54.1090 C   0  0  0  0  0
   30.2950   19.1560   50.1160 C   0  0  0  0  0
   31.7370   17.8970   45.0050 C   0  0  0  0  0
   28.2410   21.4810   46.0260 C   0  0  0  0  0
   30.4560   22.5970   45.6860 C   0  0  0  0  0
   38.1220   17.7880   54.8970 O   0  0  0  0  0
   30.4050   20.8400   42.9870 C   0  0  0  0  0
   30.6780   19.3750   43.2780 C   0  0  0  0  0
   29.3530   21.3820   43.7990 C   0  0  0  0  0
   36.7580   18.0420   54.5870 C   0  0  0  0  0
   33.2410   18.8890   51.2130 C   0  0  0  0  0
   36.2680   18.2380   53.2300 C   0  0  0  0  0
   34.5270   18.6650   51.5950 C   0  0  0  0  0
   32.8690   19.1060   49.8290 C   0  0  0  0  0
   31.5340   19.5570   47.9200 C   0  0  0  0  0
   30.4140   19.7480   47.1870 C   0  0  0  0  0
   34.9590   18.4900   52.9750 C   0  0  0  0  0
   31.6150   19.2890   49.3280 C   0  0  0  0  0
   30.8700   19.1360   44.7590 C   0  0  0  0  0
   30.3910   20.0230   45.7170 C   0  0  0  0  0
   29.6110   21.3730   45.3130 C   0  0  0  0  0
  1 17  1  0  0  0
  2 18  1  0  0  0
  3 19  1  0  0  0
  4 21  1  0  0  0
  5 21  1  0  0  0
  6 10  2  0  0  0
  7  8  1  0  0  0
  7  9  1  0  0  0
  8 19  1  0  0  0
  9 21  1  0  0  0
 10 12  1  0  0  0
 11 13  2  0  0  0
 11 14  1  0  0  0
 12 17  2  0  0  0
 13 17  1  0  0  0
 14 18  2  0  0  0
 15 16  2  0  0  0
 15 18  1  0  0  0
 16 20  1  0  0  0
 19 20  2  0  0  0
 20 21  1  0  0  0
M  END
>  <MOLID> (1rbpA1)
1rbpA1

>  <SMILES_CANONICAL> (1rbpA1)
O=C/C=C(/C=C/C=C(/C=C/C1=C(C)CCCC1(C)C)\C)\C	

>  <FINGERPRINT> (1rbpA1)
0000000000000000000001000000000000000001000001000000000000100000000000000000000000000000000000000000000000000000000000000000000001000000000000000000000000000000000000000000000000000000000000010000000000000000000000000000000000000000000000000000010000000010000000010000000001000000000000000000000000010000000000000000000000000000000000000000000000000000010000000000000000000000000000000000000000000010100000000000000000100000000000000000000000000100000000000000000000000100000000000000000000000000000000000000010000000000000000000000000000000000000000000000000000000000001000000000001000001001001000001000000000000000000000000000000000000001000000000000000000000000000000000000000000000000000000100000000000000000000000001000000000000000000000000000000000000000000100100000000000100000000000000000000000000000000000000000000000000000000000000100000001000000000000001000000000000000000000000000000000000000000000000000000000000000000000000000000000000000000000000010010010000010000000000000000000000000000000000000000000000000

>  <MACCS166> (1rbpA1)
000000000000000000000000000000000000000000000000010000000000000001000000010100000000000000000000001000000001000100110100000000000000000100011000011011000100001100111000

>  <OB_MW> (1rbpA1)
284.214

>  <OB_logP> (1rbpA1)
5.7169

>  <OB_PSA> (1rbpA1)
17.07

>  <OB_MR> (1rbpA1)
93.71

>  <OB_ATOMIC_CHARGES> (1rbpA1)
0.031133234 0.0310265347 0.0260252619 0.0043488198 0.0043488198 -0.2831542216 0.0046536411 0.0217194408 0.0043590523 0.2339299517 -0.0006432917 0.041141979 -0.0041639651 -0.0042662754 -0.0045983459 -0.0052264021 -0.0185659706 -0.0218597849 -0.0478741738 -0.0306697798 0.0183354755

>  <MCT_HBD> (1rbpA1)
0

>  <MCT_HBA> (1rbpA1)
1

>  <ENSEMBLE_TOTAL> (1rbpA1)
50

>  <ENSEMBLE_COORDS> (1rbpA1)
1.7261 -1.5539 5.4547 -1.3883 0.9129 1.6939 -0.4521 -1.4817 -3.1517 -4.1191 1.2803 -3.4592 -2.6465 2.9420 -2.4261 5.7690 -1.3475 6.1331 -1.5991 1.1066 -5.5913 -1.6053 -0.2964 -5.0330 -2.1616 2.1656 -4.6681 4.5831 -1.5069 5.8809 0.9914 -0.6845 2.6685 4.0291 -1.3440 4.5247 2.1724 -1.2114 3.0113 0.5991 -0.5345 1.2915 -0.5873 0.3622 -0.6048 -1.7385 0.4388 -1.2846 2.7012 -1.3400 4.3475 -0.4435 0.1643 0.8177 -1.3184 -0.3454 -3.5707 -1.8423 0.5682 -2.7296 -2.6694 1.7053 -3.3049
1.6336 -1.6559 5.2845 -1.9637 0.9093 2.0065 0.0919 -1.5025 -3.6057 -3.6160 1.3265 -2.1385 -1.6949 2.7805 -2.7130 5.7300 -1.5395 5.6208 -1.8376 1.2088 -5.4631 -1.2951 -0.1788 -5.2108 -2.9037 1.5218 -4.4422 4.5131 -1.5278 5.5008 0.7105 -0.3716 2.7203 3.8504 -1.2216 4.2232 1.8814 -0.9901 2.8928 0.2475 -0.0819 1.3978 -1.2053 0.7763 -0.3256 -1.0445 -0.0163 -1.3893 2.5149 -1.2559 4.1537 -0.9286 0.4441 1.0428 -0.9030 -0.4045 -3.7835 -1.4002 0.3215 -2.7599 -2.3805 1.4578 -3.0120
1.4119 -2.4183 5.5265 -1.6766 0.4455 1.7680 -0.3421 -1.5266 -3.1445 -3.6058 2.0747 -2.5812 -1.3872 3.0976 -2.8172 5.6278 -0.2900 4.7340 -2.4435 0.6308 -5.3965 -1.1923 -0.1378 -5.0384 -2.4091 1.9759 -4.7108 4.4874 -0.5178 4.3570 0.7500 -0.9968 2.8812 3.5135 -1.2538 5.1779 1.9416 -1.4448 3.2922 0.4955 -0.7387 1.4897 -0.5320 0.2261 -0.4547 -1.5932 0.3718 -1.2565 2.3389 -1.6357 4.6633 -0.5523 -0.0968 0.9534 -1.0563 -0.2851 -3.5571 -1.5467 0.6266 -2.6910 -2.2296 1.8932 -3.1951
1.3553 -0.8660 5.8273 -1.7332 0.6868 1.8096 0.0107 -1.3563 -2.9442 -3.9514 0.9304 -3.4859 -2.7523 2.7458 -2.3563 5.7736 -2.0289 4.3818 -1.7374 0.9256 -5.5489 -0.9196 -0.1974 -4.9481 -2.0212 2.0425 -4.5694 4.6316 -1.7021 4.0932 0.8723 -0.2992 2.9399 3.6076 -1.4191 5.1115 1.9088 -1.0143 3.3863 0.5858 -0.1758 1.5378 -0.6189 0.5356 -0.4181 -1.6715 0.2985 -1.2102 2.3610 -1.0919 4.7516 -0.5552 0.2726 0.9970 -0.9101 -0.3001 -3.4566 -1.6587 0.4820 -2.6515 -2.5773 1.5312 -3.2469
1.8557 -0.7061 5.5850 -0.8783 1.6517 1.5445 0.4723 -0.6553 -3.3005 -3.9881 0.5210 -2.9186 -3.0594 2.7632 -2.5763 5.5536 -2.3729 5.9406 -2.4824 0.4522 -5.5540 -1.2813 -0.3167 -5.0460 -2.7864 1.6922 -4.7433 4.4942 -1.7905 5.7617 0.9800 -0.3731 2.7129 3.8156 -1.7548 4.4566 1.8872 -1.2551 3.1389 0.4079 -0.4690 1.3979 -0.9858 0.1755 -0.4615 -1.0266 1.0569 -1.4671 2.5893 -1.2219 4.3939 -0.4024 0.4338 0.8306 -0.8281 -0.0154 -3.6534 -1.5242 0.7610 -2.7979 -2.8127 1.4234 -3.2439
2.8942 0.3097 5.0832 -1.3719 0.9741 1.6957 0.3814 -0.5953 -3.2485 -4.1762 0.4187 -3.0573 -3.3067 2.6658 -2.6295 4.9489 -2.9855 6.4207 -1.9273 0.9647 -5.6459 -1.3700 -0.2803 -5.0040 -2.9735 1.6561 -4.8011 4.2391 -2.0641 6.0423 1.2633 -0.2230 2.6202 3.5713 -2.0615 4.7275 2.3162 -0.9563 3.0005 0.7614 -0.2457 1.2712 -0.7815 0.0812 -0.5499 -1.3629 0.9606 -1.3755 2.9250 -0.9646 4.3099 -0.3748 0.3037 0.8152 -0.9407 -0.0088 -3.6027 -1.7185 0.7092 -2.7672 -2.9966 1.3412 -3.3046
1.1434 -0.9426 5.8782 -1.6356 -1.6958 1.2371 -1.4771 -1.9390 -4.0659 -2.7596 2.1322 -1.7072 -0.4007 2.3768 -2.3781 5.3170 -1.2705 3.8400 -1.5264 1.6967 -5.2525 -1.8315 0.2162 -5.2804 -2.1916 2.3333 -4.0552 4.5620 -0.4231 4.2945 0.6974 -0.7403 2.9102 3.4836 -0.7445 5.2432 1.7627 -0.2643 3.5601 0.3742 -0.2680 1.5974 -0.7960 -0.0430 -0.4559 -1.3964 -0.5230 -1.5467 2.2021 -0.6854 4.8630 -0.6199 -0.6940 0.8101 -1.6199 -0.4576 -3.9615 -1.5639 0.2114 -2.7911 -1.7237 1.7247 -2.7391
3.4411 -3.2277 4.3652 -0.8951 0.9439 1.6944 -0.9679 -1.6675 -3.0475 -4.0293 1.7491 -3.1344 -2.1423 3.1491 -2.4370 4.0893 0.0311 6.8389 -1.9131 0.9599 -5.5419 -2.0991 -0.3804 -4.8720 -2.1278 2.1614 -4.6479 3.8908 -0.9257 6.1027 1.3878 -0.8587 2.4459 3.2435 -0.7747 4.7928 2.3830 -1.7046 2.7326 0.8906 -0.6878 1.1105 -0.4183 0.2551 -0.6657 -1.5960 0.5837 -1.2091 2.9983 -1.8453 4.0288 -0.1273 0.0994 0.7363 -1.6344 -0.4000 -3.4559 -1.8547 0.6480 -2.6377 -2.5192 1.8919 -3.1989
1.9786 0.1762 5.8284 -1.7505 0.3877 1.8139 0.6674 -0.5912 -3.0016 -4.0763 0.8311 -2.4868 -2.6623 2.6972 -3.1792 4.2341 -3.4367 4.0021 -1.8054 0.9186 -5.5273 -0.6883 0.0690 -4.9693 -3.0508 0.7824 -4.6838 4.3897 -2.2330 4.1471 1.0125 -0.0909 3.0086 3.6561 -1.4476 5.1531 2.2407 -0.4310 3.4163 0.7151 0.0863 1.6134 -0.5335 0.5619 -0.3780 -1.5461 0.3056 -1.2131 2.6621 -0.6317 4.7800 -0.4794 0.2947 1.0405 -0.5998 0.0384 -3.4749 -1.5586 0.5258 -2.6549 -2.8054 1.1871 -3.2347
4.2847 -2.6454 3.9795 -1.0943 0.4655 1.6959 -0.6427 -1.5562 -3.3162 -3.6646 2.1302 -2.0393 -1.6645 3.0062 -3.1611 3.1067 -0.5372 7.3060 -2.3997 1.1199 -5.4756 -1.7870 -0.2047 -5.0778 -3.3149 1.6479 -4.3947 3.5303 -1.0576 6.2837 1.4923 -0.8559 2.3551 2.9410 -0.7864 4.9650 2.7092 -1.3419 2.6145 1.0544 -0.5782 1.0175 -0.3476 0.3692 -0.6912 -1.5453 0.3318 -1.2838 3.2555 -1.5699 3.9269 -0.1016 0.0085 0.6822 -1.4313 -0.3290 -3.6301 -1.7887 0.5745 -2.6939 -2.5917 1.8089 -3.0627
1.9085 -2.9602 5.3236 0.8338 1.7508 0.8040 -0.2497 -1.3965 -3.5543 -3.7252 1.4101 -2.2151 -2.0292 3.1269 -2.6503 4.9553 -0.4035 6.2282 -3.2698 0.4762 -5.0841 -2.1073 -0.4855 -4.9645 -2.9240 1.8341 -4.5144 4.0396 -1.1488 5.9130 1.3663 -0.6924 2.4230 3.2448 -0.9537 4.6915 1.4474 -1.7415 3.2441 0.4950 -0.6700 1.2860 -0.7206 0.3251 -0.5283 -0.5277 0.8440 -1.7435 2.2518 -1.8140 4.4360 0.2422 0.4090 0.5361 -1.2814 -0.3319 -3.7276 -1.4450 0.6786 -2.8501 -2.5046 1.7432 -3.0535
2.5403 0.6824 5.5519 -1.6203 0.4381 1.8087 0.4488 -0.8506 -3.0201 -4.0079 0.2545 -3.4520 -3.3403 2.3096 -2.2947 4.3588 -3.6654 4.7016 -1.8976 0.9087 -5.5382 -0.8984 -0.0722 -4.9644 -2.4654 1.8725 -4.5208 3.9130 -2.6174 4.2572 1.1717 0.0820 2.8926 3.5463 -1.4854 5.1222 2.3790 -0.3386 3.2834 0.8388 0.2126 1.5010 -0.5270 0.5772 -0.4402 -1.5903 0.2750 -1.1949 2.8137 -0.4709 4.6498 -0.3865 0.3564 0.9774 -0.7674 -0.1178 -3.4762 -1.6620 0.4458 -2.6375 -2.8474 1.2032 -3.2070
1.1920 -1.1972 5.8745 -1.6597 -1.6887 1.2717 -1.6307 -1.9231 -4.0361 -2.6397 2.2364 -1.6848 -0.2662 2.3014 -2.3587 4.8287 -0.7535 3.3211 -1.4603 1.6925 -5.2325 -1.9092 0.2493 -5.2420 -2.0528 2.3935 -4.0335 4.5824 -0.2593 4.4113 0.7544 -0.8880 2.9045 3.5052 -0.7340 5.2969 1.7792 -0.3742 3.5897 0.4531 -0.4138 1.5848 -0.7147 -0.1360 -0.4712 -1.4820 -0.5011 -1.5021 2.2305 -0.7856 4.8917 -0.5859 -0.7629 0.8162 -1.7025 -0.4367 -3.9273 -1.5854 0.2299 -2.7591 -1.6363 1.7512 -2.7153
1.9952 0.1011 5.8573 -1.6335 0.7839 1.8675 0.6944 -0.6019 -2.9075 -4.0767 0.5662 -2.6254 -2.8074 2.6280 -2.9722 3.8182 -3.0745 3.3350 -1.6097 1.0066 -5.4494 -0.6729 -0.0410 -4.8992 -2.9330 0.9176 -4.7289 4.3677 -2.3394 4.1420 1.0029 -0.1590 3.0342 3.6446 -1.5459 5.1528 2.2280 -0.5014 3.4430 0.7147 -0.0072 1.6344 -0.4883 0.5974 -0.3539 -1.5317 0.3720 -1.1604 2.6567 -0.7130 4.8010 -0.4351 0.3920 1.0736 -0.5822 -0.0134 -3.4061 -1.5503 0.5004 -2.6143 -2.8017 1.1316 -3.2235
3.4657 -0.0297 4.7092 -0.7541 1.4606 1.5450 0.6157 -0.0096 -3.5530 -3.9825 0.9888 -1.9365 -3.1629 2.6978 -3.4860 3.7481 -1.8185 7.0472 -2.6974 0.4162 -5.4681 -1.3283 -0.1084 -5.1022 -3.6155 0.4044 -4.2678 3.9460 -2.5530 6.0910 1.5510 -0.3001 2.4497 3.1944 -2.5009 4.8189 2.2879 -1.3156 2.9181 0.9488 -0.3130 1.1420 -0.5640 0.2661 -0.6435 -1.0981 1.1779 -1.4694 2.9777 -1.3383 4.1875 -0.0386 0.4747 0.6861 -0.8309 0.2976 -3.7502 -1.6065 0.8743 -2.8056 -3.0565 1.2286 -3.1125
2.8886 0.8826 5.3758 -1.5770 0.4074 1.8452 0.4469 -0.9265 -3.0691 -4.0108 0.2321 -3.3199 -3.2639 2.2647 -2.1706 4.0226 -3.7356 4.7526 -1.9968 0.8738 -5.4842 -0.8265 0.0593 -4.9770 -2.5158 1.8490 -4.4512 3.5686 -2.6974 4.2936 1.2291 0.0115 2.8178 3.4409 -1.4699 5.0937 2.4907 -0.2211 3.1915 0.8702 0.2074 1.4405 -0.5806 0.6852 -0.4224 -1.5248 0.1387 -1.1984 2.9153 -0.3624 4.5595 -0.3723 0.3765 0.9692 -0.7374 -0.1253 -3.4955 -1.6358 0.3814 -2.6258 -2.8313 1.1688 -3.1253
1.0571 -2.1219 5.7728 0.7129 1.2543 1.2507 0.3174 -1.0622 -3.3155 -3.3162 1.9663 -1.8226 -1.8499 3.0464 -3.4662 5.2400 -0.3165 4.2886 -2.4904 0.6769 -5.3034 -1.4919 -0.3819 -4.8928 -3.2967 1.1537 -4.1167 4.1775 -0.8534 4.0108 0.2568 -1.0827 3.0376 3.2306 -1.3103 5.0399 1.4465 -1.5882 3.3729 -0.1965 -1.0173 1.6789 -0.5874 -0.0422 -0.4675 -0.6308 0.9339 -1.3805 1.9690 -1.6100 4.7127 -0.0363 0.0278 0.8567 -0.8417 -0.1558 -3.5653 -1.2611 0.7731 -2.6803 -2.4089 1.7098 -3.0109
1.4959 -1.0977 5.3662 -1.3143 -2.7487 0.9118 -1.8852 -1.7459 -3.6540 -1.9270 2.7288 -1.6793 0.1450 2.4890 -2.9738 5.4392 -0.1981 5.9218 -3.0880 1.6965 -4.6547 -2.5407 0.3115 -4.9128 -1.9873 2.5858 -4.1265 4.2807 -0.5143 5.6947 0.7693 -1.1812 2.4282 3.6679 -0.3787 4.3648 1.7287 -0.4317 2.9752 0.1750 -0.7757 1.1912 -1.3277 -0.8838 -0.7053 -0.7285 -0.0372 -1.5504 2.3707 -0.6790 4.2346 -0.7333 -1.4481 0.4773 -1.8893 -0.2551 -3.6951 -1.3489 0.5248 -2.7365 -1.3022 2.0386 -2.8771
0.9528 -1.7339 5.8982 1.0440 1.1671 1.1056 0.4656 -0.9251 -3.4875 -3.2898 1.8105 -1.7240 -2.0293 2.9920 -3.4618 5.3487 -0.9045 4.1700 -2.6080 0.5847 -5.2586 -1.4988 -0.3877 -4.9262 -3.3630 0.9901 -4.0134 4.1524 -1.0546 3.9686 0.1501 -0.8731 3.1160 3.1928 -1.3206 5.0517 1.3324 -1.3963 3.4523 -0.3094 -0.8131 1.7561 -0.4999 -0.0095 -0.4940 -0.5334 0.9384 -1.4388 1.8877 -1.4318 4.7792 0.0398 0.0985 0.8367 -0.7779 -0.1154 -3.6431 -1.2104 0.7678 -2.7174 -2.4464 1.6166 -2.9695
2.9973 0.2140 5.0325 -1.1130 1.4039 1.5979 0.7849 0.7967 -3.5343 -4.0022 0.8266 -1.9897 -3.4666 2.2594 -3.8917 4.5975 -3.2893 6.4586 -2.4077 -0.3671 -5.2690 -1.0839 0.3590 -5.1455 -3.3599 -0.2021 -4.1025 3.9997 -2.2976 6.0644 1.3100 -0.1477 2.5739 3.3333 -2.2377 4.7495 2.2383 -1.0195 2.9873 0.8040 -0.1444 1.2249 -0.6534 0.3695 -0.6272 -1.2207 1.2824 -1.4286 2.8459 -1.0741 4.2970 -0.2384 0.5514 0.7438 -0.6872 0.7346 -3.7561 -1.6035 1.0075 -2.8054 -3.0742 0.9748 -3.1796
1.7032 -2.3788 5.4056 -1.8260 -1.4987 1.3511 -2.2002 -1.8281 -3.9062 -2.2507 2.4829 -1.6344 0.0405 2.1017 -2.4644 4.7323 0.4115 3.6480 -1.4335 1.6712 -5.2322 -2.1215 0.3259 -5.1757 -1.8132 2.4891 -4.0205 4.1281 0.4838 4.7073 0.7648 -1.0924 2.8391 3.4058 -0.6428 5.3265 1.9867 -0.9666 3.3606 0.5073 -0.6511 1.4996 -0.7090 -0.1915 -0.4896 -1.6095 -0.4112 -1.4500 2.3802 -1.2472 4.7141 -0.6239 -0.8112 0.8033 -1.9738 -0.3551 -3.8514 -1.6599 0.3028 -2.7164 -1.4276 1.8059 -2.7143
4.7410 -1.3040 3.7398 -0.4700 1.5264 1.5200 0.2242 -0.7854 -3.4362 -4.0744 0.8161 -2.4727 -2.8708 2.9539 -2.5390 3.0227 -1.8175 7.4215 -3.0023 0.3129 -5.2715 -1.6731 -0.3569 -4.9991 -3.0986 1.6554 -4.5833 3.4888 -1.5977 6.3127 1.6214 -0.4352 2.3471 2.6612 -1.5662 5.0977 2.5108 -1.3695 2.6938 0.9171 -0.4907 1.0963 -0.7451 0.1441 -0.5321 -0.9553 1.0530 -1.4916 3.2636 -1.3711 3.9191 -0.0097 0.3838 0.6829 -1.0620 -0.0643 -3.6656 -1.6063 0.7773 -2.7617 -2.8833 1.5357 -3.0782
4.4812 -1.1382 3.9530 -0.5573 -0.7225 1.3662 -1.0906 -1.6922 -3.5577 -3.4730 2.1065 -1.6320 -1.4792 2.9873 -2.7641 2.4638 -1.1256 7.5107 -2.6292 1.3759 -5.2457 -2.3525 -0.0885 -4.9928 -3.3252 1.9843 -4.0508 3.0214 -1.1366 6.4232 2.3966 -1.1644 1.6648 2.3110 -0.8697 5.1622 2.3919 -0.4616 2.8006 1.7586 -0.7128 0.4608 -0.0381 -0.1672 -1.0291 -1.2872 0.2123 -1.3118 3.0149 -0.8844 4.0243 0.4435 -0.5380 0.2752 -1.7489 -0.3566 -3.6516 -1.8004 0.5256 -2.6316 -2.5015 1.8664 -2.7739
1.0721 -0.5104 5.8950 1.0364 -2.1946 -0.2028 -1.9983 -1.7723 -4.4361 -2.2774 1.9926 -1.3422 -0.3805 2.3951 -2.8791 5.0782 -1.4285 6.2000 -3.6976 1.5908 -4.3393 -3.0078 0.4371 -5.0315 -2.6541 2.4723 -3.6990 3.8909 -1.1617 6.0781 1.3557 -0.6774 2.3708 3.3177 -0.6809 4.8116 1.4137 0.0268 3.5059 0.7231 -0.1586 1.1907 -0.0418 -0.1163 -1.0794 -0.8886 -0.5794 -2.0051 2.0021 -0.4497 4.7316 0.5236 -0.8180 0.0407 -2.1502 -0.3337 -4.0780 -1.5802 0.2379 -2.9965 -1.7371 1.7291 -2.7353
2.0631 -2.8786 4.9095 -1.3017 -1.0113 1.5094 -2.1986 -1.7654 -3.3074 -2.3133 2.8433 -1.6814 -0.1566 2.4775 -2.7965 4.1676 1.4123 5.3777 -1.9098 1.5540 -5.2237 -2.3648 0.1447 -4.9152 -2.2599 2.4844 -4.0854 3.5393 0.6113 4.7023 1.4579 -1.9484 2.1694 3.1846 -0.7348 5.1832 1.9837 -1.1473 3.0975 1.0669 -1.4423 0.8863 -0.3711 -0.4891 -0.7677 -1.4933 0.1016 -1.1845 2.4549 -1.5360 4.3983 -0.1528 -1.0005 0.5579 -2.0664 -0.2943 -3.5178 -1.7153 0.5624 -2.5376 -1.6143 2.0565 -2.7742
3.4429 -1.7767 1.3934 -2.8591 0.3925 2.0335 0.0548 -1.4732 -2.2075 -3.7719 1.5425 -2.7543 -1.7526 2.9101 -2.5052 4.2052 -1.3273 6.0256 -0.7011 1.0877 -4.9092 -0.4130 -0.2842 -4.3465 -2.0914 1.5154 -4.5023 3.8033 -0.7510 5.0257 0.8198 -0.5885 2.1099 4.0863 -1.2298 3.6640 1.7444 -0.8888 3.0228 -0.5395 -0.2685 2.4403 -1.1667 0.4278 0.1861 -1.9582 0.2060 -0.8667 3.1128 -1.2477 2.7468 -1.4711 0.1271 1.5619 -0.7050 -0.3822 -2.8829 -1.5669 0.4404 -2.2476 -2.2728 1.5684 -2.9878
3.7394 0.0882 1.6022 -2.9530 -0.3873 1.8971 0.1646 -1.5184 -2.4761 -3.7771 1.3858 -2.6559 -1.8176 2.7883 -2.2000 3.9699 -2.5085 5.5376 -0.6764 1.3554 -4.8166 -0.3335 -0.0672 -4.4421 -2.0857 1.6674 -4.3717 3.5755 -1.4533 5.0634 0.8465 -0.4276 2.1431 4.0632 -0.9315 3.7780 1.7745 -0.3626 3.0993 -0.5630 -0.4539 2.4091 -1.2444 0.2088 0.1615 -1.9108 -0.1231 -0.9476 3.1959 -0.4529 2.8793 -1.5242 -0.2520 1.4973 -0.6322 -0.3766 -3.0102 -1.5322 0.3159 -2.2808 -2.2793 1.5052 -2.8667
3.5734 0.9288 4.9985 -0.5079 -0.7200 1.5401 0.2941 -1.0069 -3.4736 -4.0144 0.7318 -1.9561 -2.5868 2.6490 -2.5289 2.5011 -3.7340 5.2797 -2.2994 1.1024 -5.3024 -1.3929 -0.0824 -5.0610 -3.4026 1.1164 -4.2711 2.5034 -2.6941 4.6377 1.9005 0.8036 2.5208 3.0417 -1.4338 5.1722 2.4645 -0.2614 3.0959 1.4119 0.8146 1.1712 -0.0693 0.4114 -0.6673 -1.2528 0.1271 -1.2196 2.9709 -0.3150 4.4425 0.3072 0.2127 0.7092 -0.9525 -0.2048 -3.6366 -1.6182 0.3624 -2.6082 -2.8718 1.1922 -2.8430
3.1692 -2.6281 4.1704 0.2653 -1.9531 0.4773 -2.4151 -1.9042 -3.8230 -2.2961 2.3187 -1.3708 -0.4731 2.3478 -3.0353 3.3468 -0.0380 7.3861 -2.8220 1.6792 -5.0551 -3.2187 0.2386 -4.8269 -2.8214 2.4127 -3.7356 3.3827 -0.7409 6.3858 2.2152 -0.1421 1.9858 2.6452 -0.3922 5.1648 1.8124 -0.9290 2.9868 1.4019 0.2308 0.8628 -0.0711 0.0265 -1.0148 -1.1650 -0.4118 -1.6466 2.6049 -1.2502 4.1405 0.5555 -0.5290 0.1531 -2.4407 -0.4158 -3.7271 -1.8198 0.2794 -2.7504 -1.8561 1.8007 -2.7279
3.6920 -1.4512 1.6099 -2.9541 -1.1265 1.5375 -1.2159 -1.9128 -3.1305 -2.6643 2.6303 -1.8697 -0.2190 2.4841 -1.8780 4.0291 0.3870 6.0232 -1.7204 1.2913 -4.9915 -0.9238 0.0464 -4.6730 -1.4494 2.3788 -3.9767 3.3663 -0.2015 5.1817 0.8088 -1.0364 2.0557 3.9133 -0.5837 3.8710 1.6746 -1.1848 3.0587 -0.6071 -1.1829 2.2078 -1.1272 -0.4888 -0.0653 -1.9565 -0.0308 -1.0040 3.0974 -1.0244 2.9081 -1.5067 -0.9282 1.2502 -1.2405 -0.4318 -3.2965 -1.5154 0.4328 -2.3010 -1.4810 1.9333 -2.5176
4.3684 -0.4996 4.0989 -0.0118 -1.7878 0.7150 -1.5710 -1.7761 -4.3454 -2.6426 1.8379 -1.1407 -1.0408 2.6119 -2.8423 2.4333 -1.7069 7.5116 -3.1302 1.7078 -4.8986 -2.8633 0.2300 -5.0764 -3.3636 2.0381 -3.4436 2.9758 -1.3239 6.4850 2.4051 -0.3914 1.7826 2.2149 -0.9287 5.2892 2.1435 -0.0777 3.0538 1.6144 0.0908 0.6878 -0.1186 0.0886 -0.9540 -0.9568 -0.4825 -1.8226 2.8820 -0.5675 4.1871 0.5642 -0.5376 0.1432 -2.0215 -0.3944 -4.0068 -1.7025 0.2260 -2.8510 -2.1789 1.6432 -2.5728
2.9925 -1.7612 1.8204 -3.0607 1.0686 1.9333 0.3942 -1.0460 -1.6948 -3.5414 0.4431 -3.7357 -2.8837 2.5429 -2.6729 5.5434 -1.9481 5.0577 -0.2336 0.9390 -4.7311 -0.1520 -0.4062 -4.0539 -1.5447 1.6528 -4.4871 4.8171 -1.7793 4.0876 0.5393 -0.1363 2.3705 3.4565 -1.2247 4.2083 1.2896 -0.6919 3.3263 -0.8183 0.2966 2.5620 -1.2935 0.7541 0.2056 -2.0482 0.4382 -0.8521 2.6343 -1.1918 3.1516 -1.6731 0.6479 1.5895 -0.5071 -0.2927 -2.6115 -1.5631 0.4490 -2.2218 -2.3474 1.2460 -3.2517
3.6905 -2.1444 4.0823 2.1591 0.4357 -0.5798 -0.9136 -1.5744 -3.9355 -3.3503 1.7189 -1.6204 -1.6302 3.1197 -2.6714 4.0231 -0.5993 7.1123 -3.9435 0.7345 -4.5092 -2.9011 -0.3236 -4.7960 -3.2920 2.0262 -4.0705 3.0790 -1.2880 6.7554 1.7399 -0.6051 2.1989 2.1799 -0.9180 5.6499 1.5065 -1.2058 3.3678 0.7185 -0.5432 1.1956 -0.2724 -0.1037 -0.9323 -0.3776 0.6014 -2.0607 2.4736 -1.3527 4.4189 0.8637 -0.0781 -0.0497 -1.7713 -0.3594 -3.8166 -1.5463 0.6172 -2.9142 -2.4355 1.8421 -2.8248
3.9487 -0.8279 4.1788 1.2146 -1.8030 -0.0835 -1.5892 -1.7602 -4.3996 -2.6322 1.7954 -1.2035 -0.8897 2.6223 -2.7390 3.5188 -1.0136 7.0984 -3.9537 1.1627 -4.2359 -3.0228 0.2114 -4.9537 -3.1298 2.2293 -3.5571 2.5650 -1.6167 6.6305 2.1524 0.1182 2.0476 1.8216 -1.1988 5.4271 1.6893 -0.4864 3.1455 1.3197 0.4677 0.9304 0.1095 0.1921 -1.1167 -0.7646 -0.4254 -1.9181 2.4630 -0.8496 4.3042 0.8808 -0.3531 -0.0349 -2.0319 -0.3929 -4.0076 -1.6003 0.2538 -2.9042 -2.0694 1.6747 -2.6087
3.8477 0.7540 2.3636 -2.9528 0.2526 2.0426 0.9259 -0.3609 -1.7190 -3.7948 0.1230 -2.9721 -2.8030 2.3621 -2.8541 3.8215 -3.5222 4.5267 -0.6605 1.0880 -4.8490 0.2067 0.1500 -4.0444 -2.1148 0.7687 -4.5963 3.2056 -2.5493 4.1166 0.8437 0.2150 2.3758 3.8614 -1.4260 3.4306 1.7309 -0.2077 3.2792 -0.5727 0.2118 2.6098 -1.2101 0.6347 0.2908 -1.8428 0.1701 -0.7903 3.1382 -0.3775 3.0219 -1.5145 0.3245 1.6630 -0.1893 0.0847 -2.6044 -1.4263 0.4046 -2.1651 -2.5001 0.8999 -3.1258
2.1703 -2.1378 4.8044 -0.0987 -3.2839 0.0576 -3.3652 -1.2338 -2.8231 -0.8837 2.8347 -1.8254 0.3451 1.6322 -3.5861 4.3617 0.7874 6.6493 -3.2818 2.3032 -4.1150 -3.4465 0.8080 -4.2740 -1.8098 2.6413 -4.0810 3.7277 -0.0695 6.0509 1.3197 -1.4607 2.0277 3.1063 0.1723 4.7388 1.7662 -0.5541 2.9013 0.6907 -1.0432 0.8088 -0.5246 -1.2526 -1.2842 -1.0943 -0.0467 -1.3795 2.4049 -0.8125 4.1638 0.0239 -1.8044 -0.0678 -2.7390 0.0692 -3.1847 -1.6409 0.5621 -2.5781 -1.0320 1.8889 -3.0037
2.3202 -2.6442 2.9770 -3.4767 0.6699 1.8987 -0.0782 -1.7322 -1.6177 -2.7731 1.3081 -3.8233 -2.0100 2.8311 -2.0605 5.6777 -0.2870 3.1340 0.1644 0.8422 -4.4891 0.2006 -0.4861 -3.7638 -0.3918 1.9839 -3.6673 4.6676 -0.9534 2.9576 -0.2089 -1.1349 2.6934 3.3210 -0.3594 2.9648 0.9403 -0.5462 3.0325 -1.4833 -0.4761 2.7350 -1.4862 0.3445 0.4342 -2.0703 0.2420 -0.7636 2.2447 -1.1548 2.9620 -2.1152 0.0997 1.7035 -0.4699 -0.5446 -2.4309 -1.3415 0.3931 -2.0080 -1.6313 1.6046 -2.8685
2.0458 -2.6658 4.4307 -2.9811 1.6741 1.8876 1.2054 0.2749 -1.3599 -3.5729 0.5511 -2.6781 -2.2237 2.2777 -3.7781 5.4477 -1.5735 2.3696 -0.4783 -0.0166 -4.8139 0.4991 -0.2701 -3.6889 -1.9053 -0.1077 -4.3228 4.3968 -1.9196 2.8907 0.1341 -0.3846 2.6519 3.2134 -1.0461 2.9266 0.9706 -0.5674 3.6776 -1.0063 0.4851 2.7025 -1.4777 0.5068 0.2954 -1.4700 1.3005 -0.7830 2.1267 -1.4263 3.6088 -1.7240 0.9112 1.6534 0.1054 0.3098 -2.3684 -1.1216 0.8098 -2.1086 -2.1841 0.8767 -3.1930
2.7008 -2.2595 3.1590 -3.6925 -0.8042 1.4780 -1.2186 -2.0147 -2.7763 -2.2455 2.7046 -2.0437 0.0511 2.2987 -1.2751 5.1936 0.9856 3.0520 0.4302 1.1260 -4.2069 -0.2397 -0.2296 -4.2285 -0.5184 2.1724 -3.6688 4.4186 0.0406 3.0406 -0.1268 -1.5770 2.5518 2.9613 0.2158 2.9541 0.7558 -0.6912 3.0168 -1.5344 -1.3088 2.4986 -1.5515 -0.6031 0.1736 -2.0755 0.0429 -0.8691 2.1820 -0.8700 3.0067 -2.2085 -0.9013 1.4163 -0.9559 -0.5574 -2.9583 -1.3160 0.3795 -2.0575 -1.0101 1.8509 -2.2633
2.5104 -1.8142 3.9138 -3.8008 -0.5240 1.5570 -0.3322 -2.0037 -1.9615 -2.6295 2.2664 -2.5940 -0.4726 2.7222 -1.5109 5.1063 0.4561 1.7690 0.7131 1.1028 -3.9432 0.4535 -0.3605 -3.6660 -0.5713 1.8908 -3.8295 4.2807 -0.3111 2.2415 -0.3332 -1.4408 2.8470 2.8307 -0.0787 2.1450 0.6189 -0.5114 2.9641 -1.7262 -1.1197 2.7081 -1.5741 -0.4110 0.3953 -2.0180 0.0961 -0.7548 2.0273 -0.7968 2.9382 -2.3236 -0.7004 1.5844 -0.4021 -0.6001 -2.4641 -1.1565 0.3627 -1.8928 -1.2008 1.7753 -2.4468
2.4679 -1.7877 3.7543 -3.8675 -0.8123 1.4764 -0.5708 -2.0660 -2.1946 -2.3478 2.4903 -2.2868 -0.1368 2.5503 -1.2121 5.0147 0.7422 1.7478 0.7719 1.0719 -3.8861 0.2731 -0.3519 -3.7994 -0.3627 2.0303 -3.6093 4.2361 -0.0328 2.2845 -0.3762 -1.4940 2.8628 2.7775 0.0873 2.1347 0.5562 -0.5469 2.7295 -1.7801 -1.2428 2.6802 -1.6360 -0.6409 0.3370 -1.9967 0.0775 -0.7256 1.9769 -0.7471 2.8077 -2.3823 -0.8838 1.5380 -0.5165 -0.6202 -2.5589 -1.1135 0.3574 -1.8449 -0.9874 1.8192 -2.2352
3.7533 -0.0680 2.6599 -2.7192 1.9946 1.8483 0.6260 2.2110 -2.1151 -2.8025 -1.3495 -1.9661 -3.4557 0.4174 -3.5349 4.1012 -3.9011 3.9619 -0.7261 -0.0898 -4.8915 0.2613 0.7229 -4.0848 -1.5062 -1.0309 -4.0014 3.9568 -2.7274 3.6550 0.7035 0.4373 2.4058 2.6724 -2.0223 3.7810 1.3988 -0.0159 3.4497 -0.5671 1.0834 2.5523 -1.1333 0.9502 0.2009 -1.8422 1.1940 -0.9035 2.6111 -0.7734 3.3065 -1.4206 1.3332 1.5521 -0.2525 1.1916 -2.7620 -1.3927 0.7312 -2.2046 -2.2664 -0.2886 -2.9097
1.4155 -2.7602 2.8402 -2.9374 2.2287 1.9097 1.4528 0.7598 -1.0188 -3.1783 -0.0912 -2.4144 -2.3926 1.9629 -3.4918 5.3829 -1.6827 2.4443 -0.2593 -1.0597 -3.8322 0.8477 -0.2190 -3.2383 -1.4423 -0.1723 -4.1410 4.2015 -1.9999 2.4484 -0.3852 -0.3798 3.0681 3.1236 -0.9992 2.3950 0.8400 -0.3341 2.5378 -1.3387 0.6918 2.9500 -1.4841 0.7502 0.5179 -1.3700 1.4647 -0.6061 1.8508 -1.3555 2.6039 -1.8435 1.2213 1.8263 0.3760 0.4955 -2.0146 -0.9131 0.8559 -1.8463 -1.9463 0.6227 -2.9381
0.5069 -2.8284 3.1148 3.0593 1.3096 -1.5231 -0.5912 -1.5610 -3.4481 -2.1041 1.9978 -0.4479 -2.1899 2.8391 -2.7523 2.0650 0.3348 6.2856 -3.9558 0.2511 -3.2543 -3.0034 -0.9224 -3.3031 -3.7253 1.0612 -1.9992 2.3905 -0.4789 5.4337 1.8366 -0.8233 1.3803 1.4683 -1.5024 4.9157 2.2399 -1.0980 2.6213 2.6053 -0.0158 0.4799 0.8466 0.1833 -1.1806 0.1212 0.9126 -2.0311 1.4236 -1.7605 3.6040 2.1558 0.4836 -0.6777 -1.5907 -0.5542 -2.9848 -1.2581 0.5810 -2.3363 -2.3005 1.5907 -1.8968
3.5068 0.0367 2.4838 -2.9077 1.9048 1.8335 0.3373 2.5367 -2.1652 -2.0867 -1.6949 -1.7332 -3.3774 -0.2132 -3.2042 4.1700 -3.7926 3.7538 -0.6463 -0.0351 -4.8159 0.2706 0.8756 -4.0310 -1.2011 -1.1194 -3.9209 3.9329 -2.6461 3.4038 0.6835 0.8801 2.5628 2.5921 -2.0524 3.4986 1.1097 -0.2175 3.1883 -0.6826 1.3099 2.6399 -1.1255 1.0735 0.2684 -1.8596 1.1107 -0.8454 2.4169 -0.8001 3.0630 -1.5199 1.4231 1.6017 -0.3111 1.3156 -2.7272 -1.3250 0.6647 -2.1197 -1.9767 -0.5602 -2.7348
1.8465 0.4198 4.3900 -3.4004 -2.3650 0.9352 -2.1424 -1.1543 -3.9495 -0.9073 2.1547 -0.5407 0.9727 0.5983 -0.8219 4.8800 0.7079 1.6116 0.6689 1.3918 -3.8848 -0.5839 0.7325 -4.4092 0.3402 2.1404 -2.6160 4.0662 0.4415 2.4860 -0.6636 -0.5796 2.9295 2.8112 -0.2771 2.1990 0.5945 -1.0062 2.7718 -1.8083 -1.3417 2.4973 -1.5518 -0.8947 0.1310 -1.9845 -0.5696 -1.0875 1.7861 -0.2476 3.0604 -2.2647 -1.4530 1.2403 -1.2884 -0.0792 -3.3697 -1.1564 0.1493 -2.0464 -0.2147 1.2318 -1.5264
1.8013 -2.0553 3.9915 -3.0483 2.2262 1.8439 1.4811 1.0448 -0.9883 -2.9987 -0.5555 -2.2092 -2.4977 1.4545 -3.5105 4.8626 -2.1266 1.2073 0.1199 -0.1757 -4.3137 1.0339 -0.1815 -3.1103 -1.2600 -0.6315 -3.8994 3.9401 -2.1096 2.0114 -0.4306 -0.2201 3.1922 2.8387 -1.1352 1.9202 0.8224 -0.1251 2.7336 -1.4220 0.8096 3.0116 -1.4696 0.7495 0.5817 -1.4062 1.3848 -0.5921 1.8455 -1.1369 2.8184 -1.9110 1.2638 1.8476 0.4502 0.5406 -1.9396 -0.8769 0.7232 -1.7751 -1.8747 0.2559 -2.8212
0.8422 -2.4304 3.0106 -1.7337 3.4564 1.4429 1.3343 1.6468 -2.1530 -2.5759 -1.0457 -1.3771 -3.3364 0.7064 -2.9229 4.8721 -2.8185 2.6307 -0.3243 -1.4773 -3.5900 0.6209 -0.2954 -3.5660 -1.7490 -0.9788 -3.6871 3.6611 -2.6562 2.6416 -0.1911 0.3167 2.9666 3.0355 -1.3262 2.5792 1.0845 0.0452 2.6790 -0.7766 1.6052 2.7198 -1.0575 1.3133 0.3280 -1.3087 1.6928 -0.9268 1.7132 -1.2444 2.7673 -1.1866 2.0764 1.5345 0.2267 0.7312 -2.5536 -1.0148 0.7977 -2.0310 -2.1358 -0.1153 -2.4927
2.6212 -2.0461 3.1647 -3.8657 -0.9355 1.3881 -3.3356 0.3647 -3.6228 0.4584 1.4266 -0.6967 0.7947 -0.8260 -1.6106 4.9795 1.3524 3.0132 0.0709 1.9041 -4.0148 -1.0931 1.0540 -4.4736 0.9268 1.0931 -3.0723 4.2753 0.3516 3.0216 -0.2447 -1.4933 2.4990 2.8066 0.4258 2.9231 0.6140 -0.5527 2.9064 -1.6702 -1.2947 2.4277 -1.7539 -0.6866 0.0804 -2.1829 0.0496 -0.9463 2.0532 -0.6813 2.9597 -2.3775 -0.9451 1.3423 -1.8935 0.5656 -3.3096 -1.3422 0.3477 -2.0983 0.1585 0.5259 -1.8812
2.9550 0.0745 3.3897 -3.4102 1.6401 1.8569 0.3078 2.6462 -1.5467 -1.5063 -1.9101 -1.6237 -2.7552 -0.5402 -3.2364 4.3169 -2.5896 1.2368 0.1445 0.1014 -4.3712 0.8015 1.0575 -3.4032 -0.3898 -1.0983 -3.6238 3.6458 -2.4685 2.2509 0.0976 0.7833 3.0969 2.2455 -2.0184 2.2312 0.5655 -0.4360 2.8184 -1.2976 1.1082 2.9733 -1.3245 1.1650 0.5498 -1.8604 0.8428 -0.6288 1.9444 -0.8349 2.7786 -1.9677 1.2809 1.8255 -0.0525 1.3616 -2.2154 -1.0510 0.5517 -1.8023 -1.4093 -0.7172 -2.5567

>  <OB_ATOM_TYPES> (1rbpA1)
C.3 C.3 C.3 C.3 C.3 O.2 C.3 C.3 C.3 C.2 C.2 C.2 C.2 C.2 C.2 C.2 C.2 C.2 C.2 C.2 C.3

>  <ENSEMBLE_RMSD> (1rbpA1)
0.562 0.645 0.876 0.901 0.902 0.947 1.119 1.125 1.168 1.212 1.224 1.230 1.240 1.284 1.297 1.299 1.309 1.323 1.351 1.410 1.418 1.422 1.452 1.492 1.503 1.505 1.517 1.529 1.639 1.651 1.671 1.694 1.702 1.778 1.890 2.007 2.065 2.117 2.196 2.378 2.473 2.502 2.594 2.633 2.693 2.766 2.783 2.823 2.881 3.136

$$$$
