
 OpenBabel03071213D

 51 53  0  0  0  0  0  0  0  0999 V2000
   15.6900    8.7540   72.9610 C   0  0  0  0  0
    8.6710    8.5120   71.3910 C   0  0  0  0  0
    7.0380   10.1740   71.0900 C   0  0  0  0  0
    7.8530   16.9150   59.3700 C   0  0  0  0  0
    8.7990   15.0250   57.9910 C   0  0  0  0  0
   10.2730   16.9410   58.5040 C   0  0  0  0  0
    9.3960   13.7580   70.6190 O   0  0  0  0  0
   11.5020    9.6090   70.0400 O   0  0  0  0  0
    8.6780   16.0960   64.1250 O   0  0  0  0  0
   10.7220   12.0980   66.2910 O   0  0  0  0  0
   10.9360   14.7290   60.1540 O   0  0  0  0  0
    8.8400   14.4200   60.9770 O   0  0  0  0  0
   14.2550    8.5750   73.4820 C   0  0  0  0  0
   14.8180   16.3160   66.7630 C   0  0  0  0  0
   13.3710    9.5010   72.6680 C   0  0  0  0  0
   13.8010   17.2940   67.3620 C   0  0  0  0  0
   14.2450   14.9070   66.5540 C   0  0  0  0  0
   12.0110    8.9910   72.9110 C   0  0  0  0  0
   13.1700   16.6640   68.6050 C   0  0  0  0  0
   13.2460   14.4230   67.6390 C   0  0  0  0  0
   11.5650   14.8660   69.2410 C   0  0  0  0  0
    9.5990   11.6040   69.4900 C   0  0  0  0  0
    8.1770   12.5680   64.9110 C   0  0  0  0  0
   11.2310   16.8380   63.6810 C   0  0  0  0  0
    9.8840   16.5330   61.7090 C   0  0  0  0  0
   10.9780    9.7270   72.2600 N   0  0  0  0  0
    6.7750   11.2140   66.6560 N   0  0  0  0  0
   10.1340   13.8920   67.5440 N   0  0  0  0  0
    9.9130   14.2450   64.4430 N   0  0  0  0  0
   14.5050   18.7940   61.7260 C   0  0  0  0  0
   13.2060   19.3510   61.7750 C   0  0  0  0  0
   14.7640   17.5730   62.3190 C   0  0  0  0  0
    5.5210   11.1890   67.0860 C   0  0  0  0  0
   12.1620   18.6860   62.4280 C   0  0  0  0  0
   13.7010   16.9050   62.9720 C   0  0  0  0  0
    5.6480   12.7740   65.5600 C   0  0  0  0  0
    4.8150   12.1090   66.4480 N   0  0  0  0  0
    8.3540    9.6780   70.5370 C   0  0  0  0  0
   12.3190   15.4980   68.1170 C   0  0  0  0  0
   10.2730   12.9040   69.8880 C   0  0  0  0  0
   10.5650   15.8190   62.8580 C   0  0  0  0  0
   10.9580   13.6050   68.7020 C   0  0  0  0  0
    9.1070   13.6870   65.4460 C   0  0  0  0  0
    9.4900   10.6970   70.6930 C   0  0  0  0  0
    6.8770   12.2330   65.6820 C   0  0  0  0  0
   10.7830    9.9610   70.9650 C   0  0  0  0  0
    9.6000   15.3690   63.8630 C   0  0  0  0  0
   10.0840   13.1450   66.4600 C   0  0  0  0  0
   12.3950   17.4700   62.9910 C   0  0  0  0  0
    9.1160   16.0980   59.0500 C   0  0  0  0  0
    9.7080   15.3800   60.4890 S   0  0  0  0  0
  1 13  1  0  0  0
  2 38  1  0  0  0
  3 38  1  0  0  0
  4 50  1  0  0  0
  5 50  1  0  0  0
  6 50  1  0  0  0
  7 40  1  0  0  0
  8 46  2  0  0  0
  9 47  2  0  0  0
 10 48  2  0  0  0
 11 51  2  0  0  0
 12 51  2  0  0  0
 13 15  1  0  0  0
 14 16  1  0  0  0
 14 17  1  0  0  0
 15 18  1  0  0  0
 16 19  1  0  0  0
 17 20  1  0  0  0
 18 26  1  0  0  0
 19 39  1  0  0  0
 20 39  1  0  0  0
 21 39  1  0  0  0
 21 42  1  0  0  0
 22 40  1  0  0  0
 22 44  1  0  0  0
 23 43  1  0  0  0
 23 45  1  0  0  0
 24 41  1  0  0  0
 24 49  1  0  0  0
 25 41  1  0  0  0
 25 51  1  0  0  0
 26 46  1  0  0  0
 27 33  1  0  0  0
 27 45  1  0  0  0
 28 42  1  0  0  0
 28 48  1  0  0  0
 29 43  1  0  0  0
 29 47  1  0  0  0
 30 31  2  0  0  0
 30 32  1  0  0  0
 31 34  1  0  0  0
 32 35  2  0  0  0
 33 37  2  0  0  0
 34 49  2  0  0  0
 35 49  1  0  0  0
 36 37  1  0  0  0
 36 45  2  0  0  0
 38 44  1  0  0  0
 40 42  1  0  0  0
 41 47  1  0  0  0
 43 48  1  0  0  0
 44 46  1  0  0  0
 50 51  1  0  0  0
M  END
>  <MOLID> (1rneA1)
1rneA1

>  <SMILES_CANONICAL> (1rneA1)
CCCCNC(=O)[C@H](C(C)C)C[C@@H]([C@@H](NC(=O)[C@H](Cc1cnc[nH]1)NC(=O)[C@@H](CS(=O)(=O)C(C)(C)C)Cc1ccccc1)CC1CCCCC1)O	

>  <FINGERPRINT> (1rneA1)
0000010000000101000000000000001000000101000000000111001000000000000000000001001000000001000000000000010110010001000001100101000000000100000110000000001011000000000000000000000000000000000000000000000000000000001000000010000000100000000000000000000000001100000001000100000000001001100000000000000000001001010010101100000000101000001100001010000000000000010100000000010110111000000000000000011000000001100000000001101000000000100101000010100000000000100000010001101000000000000000000000000000001100000000000000110000010100000000000000000000000000000011100000000000000000000000000000001001000000011000000001100001000000010000000000001000000001011000000000000000001101000000000011100010100100000001100011001100100011000000000000001100000001000100100101010000000000000110000000110000000100000110100000000010000000000000000000001000000000000000000000000000000000000000000001000000000000000000010000000000001100000000000000000000000100000000000100011000000000001110110110000000000010010000000000000000100001000000010010111000100000

>  <MACCS166> (1rneA1)
000000000000000000000000000000000000000000001000011011100101100011100000110111111010000101110011001001010001011101111111100110011111000111111100111110111111111110111000

>  <OB_MW> (1rneA1)
729.45

>  <OB_logP> (1rneA1)
7.1574

>  <OB_PSA> (1rneA1)
178.73

>  <OB_MR> (1rneA1)
204.499

>  <OB_ATOMIC_CHARGES> (1rneA1)
5.83393e-05 0.000491764 0.000491764 0.0235863793 0.0235863793 0.0235863793 -0.2212933188 -0.2733554703 -0.2732747688 -0.271474498 -0.1730675461 -0.1730675461 0.0018202968 5.8e-09 0.0234292858 7.228e-07 7.228e-07 0.115141587 5.72327e-05 5.72327e-05 0.0242744534 0.0438000794 0.0785168219 0.0372570406 0.1601019414 -0.2054357994 -0.2267456566 -0.2031363005 -0.1973218088 -2.00226e-05 -0.000322392 -0.000322392 0.1986492802 -0.0042536312 -0.0042536312 0.1153994534 -0.221231758 0.0087425119 0.0017907132 0.172236453 0.1060537831 0.1255888425 0.1786401975 0.0807695156 0.0820733682 0.2409703641 0.2433585928 0.2616376354 -0.0216484094 0.1107547925 -0.0126989818

>  <MCT_HBD> (1rneA1)
5

>  <MCT_HBA> (1rneA1)
11

>  <ENSEMBLE_TOTAL> (1rneA1)
44

>  <ENSEMBLE_COORDS> (1rneA1)
1.9056 -5.1719 9.4862 -2.9107 -1.4069 5.0186 -2.6532 -3.0328 6.8250 -4.9437 4.3155 -4.2711 -3.4121 5.2291 -2.5720 -4.4701 3.0292 -2.2274 -1.1803 -2.8117 2.3803 0.3243 -4.6720 6.0047 1.5502 0.8345 -2.3873 -1.4967 -0.0532 0.6215 -2.0299 4.0606 -5.1284 -2.8862 1.7996 -4.4031 1.3999 -3.8114 9.8966 4.4370 1.4541 2.5025 0.1926 -3.4521 9.0659 3.0196 1.7612 2.0704 5.1776 0.5966 1.5024 0.4822 -2.2475 8.1986 2.5166 0.8909 0.9401 4.4543 -0.7101 1.2606 2.2100 -1.3595 2.0681 -0.0817 -1.7790 4.2353 -1.8792 -1.5472 -1.9798 1.1401 3.3907 -3.3742 -1.2490 3.0972 -2.8302 0.9321 -2.6289 6.8810 -0.8360 -2.0368 -4.2324 0.2926 -1.5324 0.5477 -0.7017 0.5606 -1.9644 2.8698 4.2018 -7.2108 2.8982 5.1457 -6.2531 2.2167 2.9297 -6.9589 -1.0335 -3.0652 -5.1518 2.2810 4.8853 -4.9649 1.6519 2.6879 -5.7633 -2.2575 -3.5519 -3.4774 -1.8778 -3.9945 -4.7402 -1.9079 -2.0455 5.9548 2.9649 -0.5524 1.0326 0.0890 -2.3852 2.8554 -0.0095 2.4017 -3.3558 0.7005 -1.3507 1.9211 -0.6452 -0.8077 -1.5094 -0.7960 -2.7253 5.1800 -1.6337 -2.4042 -3.1570 0.1954 -3.4508 6.0580 0.3850 1.2044 -2.5129 -0.6846 -0.7263 -0.0064 1.6695 3.7099 -4.7273 -3.8768 3.9630 -3.2568 -2.5037 3.1640 -4.0913
0.0140 -5.3629 10.5534 -2.6497 -3.3028 3.5792 -2.1100 -5.1318 5.1114 -2.7353 6.6181 -3.3226 -0.2897 6.6897 -3.0806 -1.6482 5.4009 -1.4805 0.3500 -3.1352 1.9490 1.1751 -4.5333 6.0697 2.0287 1.7604 -2.2515 -0.9125 -0.2201 0.3106 -1.2488 4.8329 -5.3475 -2.4243 3.4413 -3.6013 -0.3885 -4.0131 10.0120 3.9613 3.0637 0.7143 -0.8534 -4.1776 8.5876 2.5612 3.3108 1.2383 4.8785 2.5064 1.7825 -0.9414 -2.8399 7.8911 2.0358 2.1955 2.1210 4.3233 1.2703 2.4642 2.3368 -0.1818 2.8576 -0.0644 -2.0592 4.0360 0.3654 -1.9551 -2.1804 1.1145 1.9822 -5.0706 0.1891 3.6793 -3.4954 0.1075 -2.6716 6.9127 -2.1412 -2.1606 -2.3290 1.2486 -0.9276 0.7852 0.0936 0.4834 -2.2070 -1.3035 1.2754 -8.5358 -0.5142 2.3638 -8.4936 -1.2803 0.3198 -7.4427 -3.0516 -3.0510 -1.7619 0.3198 2.6090 -7.3307 -0.4961 0.5386 -6.3720 -1.1339 -3.6946 -1.0940 -2.4915 -3.9855 -1.0142 -1.8682 -3.6671 4.8209 2.9036 0.9601 2.0459 0.8963 -2.2043 2.8724 0.2659 2.2067 -3.8345 1.1255 -0.8461 2.2230 0.6465 -0.6355 -1.4914 -0.3850 -3.4048 4.6538 -0.9166 -2.6132 -1.8629 0.3774 -3.6072 5.9392 0.9145 1.4835 -2.6856 0.2114 -0.5568 -0.0485 0.2983 1.7544 -6.2916 -1.5151 5.8179 -2.9271 -1.3792 4.3745 -3.9780
2.3450 -6.9759 7.8617 3.4457 0.0883 5.7555 2.1105 -1.5504 6.9583 -1.3271 5.0366 -6.3733 -0.0188 4.7656 -4.3182 -2.4759 4.5731 -4.2331 2.7420 0.3762 1.3037 0.1954 -3.0413 4.3326 -0.3250 -1.4682 -3.4669 -0.1089 -2.3156 0.8582 0.0759 2.3119 -6.1932 -2.4046 2.0427 -5.8267 1.6979 -6.0582 6.8536 -4.3135 1.5115 3.0093 2.7498 -5.4258 5.9731 -3.7898 0.1375 3.3764 -3.5771 2.6088 3.7458 2.1815 -5.1882 4.5922 -2.2995 0.1045 3.6585 -2.0810 2.5817 3.4988 -0.0829 1.1651 3.1551 2.6700 -1.1116 3.1514 -2.5235 -0.3106 -0.3698 1.5085 1.4272 -3.0804 -0.8338 1.8816 -3.7558 2.3797 -3.8224 4.1764 -3.6513 -0.8907 -2.5512 0.1029 -0.0156 1.0195 -0.4813 -0.0610 -1.6404 4.6844 2.1115 -5.8679 4.1342 3.1514 -5.2166 4.1990 0.7638 -5.6252 -4.9563 -1.2564 -2.8729 3.0706 2.9223 -4.2587 3.2169 0.5489 -4.7308 -4.9155 -1.0758 -0.7488 -5.7487 -1.3788 -1.8226 2.8764 -1.3091 5.6760 -1.5819 1.2499 2.9795 2.0759 0.1312 2.5296 0.2667 0.8466 -3.7306 0.5634 0.0341 2.3816 -1.2145 -0.9528 -0.7764 1.9840 -1.4638 4.4584 -3.6675 -0.7986 -1.1662 1.4091 -2.8523 4.3288 -0.2044 -0.3593 -2.9544 -0.3545 -1.1842 0.4457 2.6062 1.6784 -4.0467 -1.2440 4.2865 -5.0643 -1.1106 2.5299 -5.3881
1.5947 -4.9027 9.6834 -3.2356 -2.4439 4.4087 -2.8248 -4.0036 6.2443 -4.6624 5.4183 -2.8433 -2.4461 6.1807 -2.1068 -3.6298 4.4346 -0.8381 -0.6386 -3.0573 2.1887 0.5917 -4.6429 5.9798 1.4848 1.6084 -1.8166 -1.5822 -0.3004 0.4474 -2.4749 4.2480 -4.5935 -3.2809 2.4648 -2.9998 0.6114 -3.8112 10.0281 3.8833 2.4502 0.1742 -0.4660 -3.7525 8.9744 2.6808 2.9505 0.9462 4.8201 1.6383 1.0412 -0.3891 -2.4519 8.2069 2.0037 1.8831 1.7826 4.1194 0.5643 1.8463 2.0053 -0.4987 2.5402 -0.3309 -1.8556 4.2294 -1.0970 -1.7695 -2.1597 0.9669 3.1537 -4.0785 -0.9545 3.5890 -2.5770 0.3864 -2.5846 6.9962 -0.5977 -3.8598 -3.4482 0.5497 -1.1879 0.6879 -0.5877 0.5897 -1.9975 1.7912 1.5533 -7.9683 1.9456 2.8700 -7.7416 1.2938 0.6896 -6.9134 0.1015 -4.1126 -4.6273 1.6228 3.4243 -6.4390 0.9986 1.2044 -5.7070 0.3441 -2.0316 -4.2533 0.6863 -3.0453 -5.1409 -2.2767 -2.7905 5.5257 2.6268 0.5154 1.6074 0.2879 -2.2501 2.9022 -0.1766 2.5211 -3.3136 0.6345 -0.9916 2.1165 -0.2250 -0.7183 -1.5074 -0.8853 -3.0490 4.9810 -0.3991 -2.5033 -3.2357 0.0950 -3.5194 6.0286 0.3602 1.5428 -2.3012 -0.5214 -0.6919 -0.0303 1.1514 2.6305 -5.4598 -3.3560 4.9799 -2.2216 -2.5995 3.7213 -3.2477
1.8058 -6.7075 1.0003 2.5186 -2.7749 5.8413 0.9367 -2.5098 7.7091 4.2507 2.8120 -5.1357 3.5044 0.4881 -5.4393 4.1306 1.2928 -3.2024 -0.1059 0.6447 5.3215 -2.0265 -3.4532 5.3383 -0.9005 -1.3814 -2.6636 0.1458 -1.5938 1.1989 1.2525 2.7105 -5.4617 1.7535 2.9975 -3.0055 1.4093 -6.7096 2.4551 4.4997 3.4388 2.5144 0.0462 -6.0813 2.6034 3.0136 3.7023 2.6144 4.7896 1.9690 2.7240 -0.0654 -5.4285 3.9593 2.2367 2.8568 1.6271 4.0568 1.1286 1.6972 1.9478 0.6947 2.9175 0.6287 -1.4018 4.3168 -2.7370 0.3375 0.4227 -1.4344 0.7284 -4.5640 0.9587 0.6548 -3.8714 -0.3957 -4.0356 3.8084 -4.6240 -1.1937 -0.2333 -0.2684 0.6195 1.7659 -0.8490 0.3506 -1.1231 -3.3422 4.3859 -5.7284 -2.8198 3.5837 -6.6734 -3.2204 4.0310 -4.3265 -5.6028 -1.1179 -1.2231 -2.1486 2.3536 -6.2910 -2.6014 2.8914 -3.9733 -4.4451 0.6582 -1.4308 -5.5336 -0.0243 -1.9619 1.0872 -2.9665 6.2801 2.5617 1.3783 1.7170 -0.1440 -0.1149 4.1228 -0.4633 0.8700 -3.4072 0.4383 0.7384 3.0144 -1.4890 -0.3740 -0.0532 0.0577 -2.2820 5.4048 -3.9018 -0.0237 -0.4073 -0.9027 -3.3093 4.8629 -0.7712 -0.1926 -2.3884 -0.4579 -0.5355 1.0394 -2.0343 2.0208 -4.9916 3.4725 1.6782 -4.5069 1.7822 2.1954 -4.2140
0.8461 -6.9462 8.6581 -1.6479 -5.1567 2.3022 -0.0511 -6.9874 2.5828 1.0748 -1.8997 -6.8704 -1.2385 -2.0075 -6.0722 0.5909 -2.7564 -4.6093 -0.0254 -2.5686 0.7004 3.0022 -5.5292 2.5058 -3.2629 0.9236 -2.1688 -2.2385 -0.2103 1.9103 0.3371 0.8509 -6.1162 1.4136 -0.0553 -4.0228 0.5681 -6.4707 7.2537 2.2526 3.9755 3.1696 1.6648 -5.5367 6.8064 0.9678 3.4220 3.7524 3.4589 3.1475 3.5568 2.1882 -5.9716 5.4598 0.9578 1.9105 3.8678 3.3341 1.6984 3.1293 1.8002 -0.2327 2.8809 0.4743 -3.1838 2.9431 -1.1052 2.7530 0.7617 -1.9196 2.4978 -4.1943 -1.1919 0.1204 -4.1414 2.1682 -4.8564 4.5496 -2.7407 4.0826 -0.6366 -0.0324 0.0343 1.2440 -1.2459 1.1106 -1.0313 0.6658 5.6537 -5.5165 -0.2293 5.1265 -6.3708 0.7737 5.1333 -4.1655 -3.1097 5.4241 -0.6213 -1.0894 4.0375 -5.9414 -0.0291 4.1320 -3.7656 -1.8006 5.1669 1.0430 -2.5707 6.1111 0.3707 -0.3505 -5.5561 2.9691 1.9031 1.2739 2.8734 0.7933 -2.2300 1.8110 -1.2376 1.4186 -3.3760 0.5287 -0.8037 2.2770 -1.7356 1.4646 0.2797 0.7829 -4.6236 2.5782 -1.9075 3.9567 0.4673 2.0981 -5.0542 3.1893 -2.0559 1.1442 -2.1466 -1.3795 0.3419 1.2257 -0.9856 3.5439 -4.6931 0.1909 -1.7411 -5.6557 0.3449 -0.0779 -5.0031
-0.7455 -0.6725 9.7007 1.8576 -0.1922 5.0059 -0.3940 0.4185 5.7379 -2.2462 5.2728 -4.1627 -2.4253 4.8806 -1.7435 -4.4452 5.0203 -3.1251 -0.3385 -3.9541 2.5327 -2.4177 -1.9322 4.3401 0.9068 -0.0668 -3.5071 -1.0205 -1.0268 1.0788 -2.5289 2.5249 -4.7519 -4.2097 2.1838 -2.9122 -1.4890 -1.9775 9.5596 5.2309 0.4369 -0.2112 -0.9545 -2.7421 8.3754 4.7178 0.7586 1.1680 5.7484 -0.9818 -0.3179 -1.9786 -2.7424 7.2675 3.6271 -0.1801 1.6330 4.9904 -1.9653 0.5463 2.9188 -2.5700 1.7059 0.9118 -2.9067 4.2908 -1.7426 -1.7992 -1.6765 0.6480 2.9113 -2.6477 -1.6973 2.1561 -2.2827 -1.3542 -3.1020 6.0234 -1.0614 -2.5043 -4.0014 0.7560 -2.4446 0.5993 -0.1327 0.0180 -1.4454 1.7640 5.3349 -6.0036 1.5335 5.9144 -4.8111 1.6353 3.8976 -6.1466 -1.4249 -3.5786 -4.8087 1.1484 5.1037 -3.6705 1.2871 3.1439 -5.0879 -2.4064 -3.8990 -2.9396 -2.2304 -4.4394 -4.2111 0.5420 -0.7455 5.5067 3.5978 -1.4964 0.8902 0.9281 -3.4162 2.8648 -0.3945 1.8704 -2.9903 1.4265 -2.3727 1.8775 -0.3574 -1.3906 -1.2133 -0.0345 -1.7411 4.5152 -1.7018 -2.7612 -2.7970 -1.3959 -2.2469 4.9441 0.1823 0.5058 -2.6947 -0.2621 -1.5655 0.2790 1.0050 3.7727 -3.8054 -3.0131 4.5336 -3.0915 -2.9613 2.7549 -3.3862
0.6056 -7.0244 8.3474 -1.5752 -4.9184 2.5905 0.0209 -6.7543 2.8506 0.9665 -2.2284 -6.8186 -1.4115 -2.2264 -6.2100 0.2808 -2.9032 -4.5553 -0.0017 -2.5151 0.6410 3.1355 -5.1902 2.5760 -3.2956 1.1051 -2.1983 -2.1290 -0.0935 1.7392 0.0618 0.5908 -6.3365 1.2652 -0.1638 -4.2494 0.6024 -6.6733 6.8806 2.8160 2.3052 5.2939 1.3585 -5.3862 6.6602 1.4593 1.6731 5.0740 3.8211 1.7442 4.3122 2.3772 -5.5835 5.5645 0.9792 1.9203 3.6608 3.3725 2.0019 2.8884 2.0064 -0.0319 2.4325 0.5759 -2.9389 2.9082 -1.0617 2.9045 0.6537 -1.9971 2.4068 -4.4117 -1.3440 0.0052 -4.2228 2.3016 -4.5041 4.6184 -1.0803 5.1583 -0.4457 0.0473 0.1210 0.9712 -1.2095 1.3022 -1.1943 0.1836 6.0442 -5.0515 -0.6535 5.5906 -6.0007 0.3989 5.2680 -3.8437 -2.0960 6.0507 -0.7829 -1.3646 4.3400 -5.8012 -0.2595 4.1098 -3.6624 -3.0705 4.4048 0.1534 -3.3042 5.6383 -0.4443 -0.2396 -5.3032 3.1872 1.9799 1.4712 2.6144 0.8711 -2.1022 1.6820 -1.3211 1.3588 -3.5523 0.6748 -0.6342 2.0278 -1.6638 1.6158 0.1362 0.8725 -4.4080 2.6709 -1.7587 4.1058 0.1505 2.2160 -4.7575 3.2669 -2.0785 1.2431 -2.2615 -1.2891 0.4640 1.0357 -1.1734 3.6164 -4.6829 -0.0139 -1.9609 -5.6994 0.1416 -0.2583 -5.1627
5.2838 -6.2550 5.8308 0.5907 -0.8291 6.6835 0.8296 -3.1546 5.9674 -1.5598 3.1615 -7.3209 -2.0539 1.2804 -5.8154 0.2750 1.8324 -6.4026 1.8286 1.0382 2.0546 2.1907 -2.8465 2.6770 0.1493 -0.7835 -3.3696 -0.4267 -2.0937 0.7683 -2.3002 4.1930 -4.5928 0.2042 4.3260 -4.8101 4.6696 -5.3877 4.7621 -5.4783 -1.0220 3.6430 4.6826 -3.9459 5.2054 -4.4177 -1.8528 2.9482 -5.2536 0.4560 3.4050 4.7799 -3.0480 3.9955 -3.0326 -1.4417 3.4082 -3.8608 0.8666 3.8303 -1.4420 0.4843 3.6142 1.7748 0.1332 4.2383 -2.6813 0.1256 -0.6019 1.5222 2.2478 -2.5695 -0.8500 2.5014 -3.2677 3.8165 -1.9825 4.0834 -3.5579 0.1556 -2.9591 -0.5977 0.1513 1.3423 -0.3948 0.3481 -1.4224 5.4656 1.6009 -4.1543 5.3060 2.0915 -2.9125 4.3000 1.2601 -4.9500 -4.8345 -0.0358 -3.4856 3.9711 2.2936 -2.3780 3.0652 1.4509 -4.4531 -4.9856 -0.5254 -1.4175 -5.7199 -0.4517 -2.5972 1.4358 -1.7749 5.8607 -2.8043 0.0313 3.1395 0.9596 0.7852 3.1441 0.3699 1.6068 -3.3152 -0.2916 0.0158 2.7443 -1.3494 -0.5632 -0.8318 1.5115 -1.3474 4.4093 -3.6973 -0.1968 -1.6238 2.5250 -2.1467 3.6301 0.0351 0.2557 -2.7268 -0.7407 -0.9360 0.5018 2.8848 1.9818 -3.1102 -1.0874 2.4075 -6.0974 -1.0091 3.5380 -4.7020
-1.6465 -0.0173 8.9178 -2.2503 -3.3502 2.7589 -2.1406 -3.4097 5.2086 -5.2238 3.6700 -3.3979 -4.8620 1.6731 -2.0067 -3.7738 1.8555 -4.2069 1.0262 -4.0542 1.9872 0.8015 -1.1401 5.7792 -0.3503 0.1642 -4.2069 2.1006 -2.9012 -1.7194 -3.2499 4.0321 -0.9783 -2.1460 4.2317 -3.2343 -2.2461 0.9511 7.9275 7.0754 -1.8524 -0.0723 -2.2874 0.3202 6.5560 6.6971 -0.3963 0.0926 6.7530 -2.6701 1.1626 -1.2308 0.9577 5.6768 5.2448 -0.1977 0.4800 5.4305 -2.3017 1.8093 3.2322 -1.1853 1.5445 0.1915 -1.8966 2.5985 -1.2076 -2.1817 -1.3022 0.6837 2.5401 -1.9296 -1.7540 2.0604 -1.7817 -0.8220 0.0507 4.6323 -2.6748 -2.0078 -3.3497 1.3602 -1.6217 0.0646 0.0982 -0.2375 -1.9671 2.2052 6.1728 -3.6008 1.6488 6.1936 -2.3761 2.2598 4.9315 -4.3532 -3.6381 -2.8557 -3.8945 1.1079 4.9737 -1.8042 1.7606 3.8004 -3.8237 -2.8514 -3.8929 -2.2059 -3.7773 -3.9962 -3.2403 -1.8180 -2.5811 3.9865 4.5567 -1.4817 0.8872 1.4190 -2.7215 2.2748 -0.5226 1.9776 -2.6534 2.2005 -2.1917 1.0885 0.0552 -1.6802 -1.9715 -0.3431 -2.2212 3.9760 -2.1793 -2.7292 -2.2712 -0.0526 -1.0630 4.8995 -0.2646 0.5433 -3.0423 1.2761 -2.1467 -1.2084 1.1463 3.8265 -2.5060 -4.2122 2.6264 -2.9829 -2.8055 3.4300 -2.2217
2.0001 -5.2882 9.7845 -2.4293 -1.1569 5.3909 -2.2188 -2.6563 7.3059 1.2663 7.1134 -3.8515 2.5965 5.2490 -2.9807 1.0733 6.4694 -1.4967 -0.9553 -2.8957 2.7750 0.3670 -4.7511 6.3920 1.2372 0.2816 -3.1198 -0.9189 0.3924 1.1057 -0.5757 5.1527 -4.6485 -1.0079 4.7303 -2.2039 1.6554 -3.8859 10.2218 4.9639 0.1420 -0.9644 0.5592 -3.3370 9.3435 3.5797 0.7042 -0.7134 5.0026 -1.3620 -0.7807 1.1043 -2.2775 8.4119 3.0667 0.2884 0.6498 4.4505 -1.7727 0.5698 2.4497 -1.6984 2.0496 0.3304 -1.8725 4.5134 -2.1213 -1.0151 -1.3262 -0.4576 1.6432 -4.9977 0.7083 3.2220 -3.4672 1.3747 -2.8014 7.0934 -1.5867 -1.7688 -3.6812 0.2940 -1.5687 0.8503 -0.4593 0.7326 -1.6090 -4.0211 2.9497 -6.9882 -2.8272 3.1245 -7.5825 -4.0928 2.3489 -5.6683 -2.2245 -2.6533 -4.5475 -1.6128 2.7088 -6.9035 -2.9682 1.9603 -5.0413 -3.2817 -2.7925 -2.7034 -3.2456 -3.2897 -4.0022 -1.4348 -1.8332 6.3084 3.0534 -1.2221 0.7491 0.3636 -2.5137 3.1392 -0.2958 2.0929 -3.5573 0.9433 -1.5221 2.1404 -0.6854 -0.5968 -1.0872 -0.4657 -2.6875 5.5134 -2.2921 -1.9060 -2.4930 0.4506 -3.5246 6.3742 0.2590 0.9345 -2.7682 -0.4592 -0.5010 0.4004 -1.6745 2.1667 -5.6729 1.2533 5.9365 -2.9004 -0.0906 4.8065 -3.3257
4.5950 -1.5810 8.9299 -2.2880 -0.8542 5.6937 -2.1372 -2.3997 7.5797 2.5596 6.5110 -3.8980 3.4139 4.3060 -3.2582 2.4958 5.8112 -1.5516 -1.6155 -2.6196 2.8153 -0.3999 -5.0348 6.3388 0.4765 -0.1553 -3.3426 -0.6818 0.4552 1.2334 0.2130 5.0950 -4.5294 -0.0994 4.8642 -2.0411 3.1746 -1.9863 9.2346 4.1876 -1.6988 -1.6339 2.8568 -3.2828 8.5323 3.7997 -0.5245 -0.7588 4.7089 -2.8673 -0.8258 1.3863 -3.3352 8.2003 3.1615 -0.9272 0.5558 3.7359 -3.3320 0.2392 1.9045 -2.7151 1.7837 0.0836 -2.1776 4.4320 -2.6367 -0.5341 -0.9345 -0.6872 1.8703 -4.9274 0.9703 2.8866 -3.3697 1.2089 -3.4384 6.7762 -3.1494 -2.4894 -2.4413 -0.1308 -1.7563 0.7853 -0.6583 0.7575 -1.5408 -4.0027 4.1237 -6.4492 -2.8943 3.9817 -7.1980 -4.0616 3.5353 -5.1235 -3.7115 -2.5791 -3.7144 -1.7609 3.2367 -6.6799 -3.0119 2.8439 -4.6451 -3.7099 -0.5033 -3.2369 -4.0609 -1.4129 -4.2283 -1.3521 -1.7707 6.4504 2.6245 -2.3404 0.5088 -0.2219 -2.7409 3.0586 -0.3299 2.1165 -3.4723 0.5926 -1.9866 2.0147 -1.1233 -0.4769 -0.9521 -0.7624 -2.8141 5.5190 -3.1663 -1.1282 -2.1778 0.0171 -3.8822 6.2500 -0.1176 0.7778 -2.8102 -0.6202 -0.5023 0.4682 -1.8059 2.7020 -5.4454 2.3397 5.3306 -2.9768 0.6918 4.6417 -3.2372
-2.8979 -6.8332 7.0213 2.1029 -1.2548 6.6010 0.8520 -2.7881 8.0352 -0.4869 4.8117 -5.8730 -0.3004 6.7490 -4.3822 -2.4918 5.7329 -4.8086 -0.6111 0.3496 4.8252 -2.1663 -3.1124 6.4466 1.8226 0.5960 -2.7586 -1.4618 0.9278 0.7012 -1.9978 3.5308 -3.0611 -0.3352 5.1357 -2.0694 -1.4425 -7.1830 6.8308 3.3835 3.3133 3.5204 -0.5910 -5.9768 7.1392 2.9113 3.4379 2.0901 4.2458 2.0881 3.7409 0.0707 -5.4597 5.8821 2.1101 2.2229 1.6821 4.1537 1.0636 2.6277 1.9076 0.0962 3.0305 0.2587 -1.8661 4.3370 -1.2051 -1.4190 -1.3445 0.5572 1.3302 -5.2100 0.5519 3.2856 -3.6685 -0.7248 -4.4423 5.2369 0.3310 -3.3610 -1.8161 0.1667 -0.5555 1.4279 -0.2723 0.7881 -1.7798 -2.4072 0.8969 -8.2741 -1.2244 1.4651 -8.5687 -2.6970 0.4937 -6.9097 0.6817 -4.0236 -2.9917 -0.2324 1.6549 -7.5255 -1.7791 0.6733 -5.9432 -0.7280 -2.5360 -3.5746 0.0701 -3.5624 -4.0685 1.1809 -2.4534 6.5975 2.7531 0.9065 2.0725 -0.3909 -0.6042 3.8002 0.0916 1.8578 -3.8691 0.4287 0.0544 2.7068 -0.2067 -0.3649 -0.9123 -0.0689 -2.1685 5.7849 -0.5799 -2.4072 -2.2447 -1.0927 -3.2765 5.8705 0.6667 1.0074 -2.7672 -0.5813 0.1043 0.4708 -0.4990 1.2897 -6.2573 -1.0215 5.4395 -4.6081 -0.8044 4.3458 -3.1931
-4.4023 0.0299 3.7086 -1.8666 -3.5759 3.5346 -2.1024 -2.7513 5.8237 -4.8688 3.8258 -3.9979 -2.7907 4.4768 -2.8590 -4.6425 3.4920 -1.5714 1.4149 -3.6921 2.5959 0.6485 -0.7768 6.3359 0.2802 -0.1553 -3.9252 2.6270 -2.3080 -1.3313 -2.6391 1.8184 -4.5103 -4.2699 0.8495 -2.8524 -4.0258 1.0687 4.7355 7.4436 -1.0444 2.0255 -2.6450 1.5995 4.4405 6.9126 0.1212 1.2162 6.3597 -1.9095 2.6293 -1.6668 1.0724 5.4613 5.4409 0.3833 1.4464 5.2295 -2.1346 1.6522 3.2292 -0.6440 1.8153 0.2730 -1.6305 3.0057 -0.7148 -2.8978 -1.1121 0.4269 2.3728 -1.7631 -1.9642 1.6735 -1.9639 -0.5539 0.4505 4.7945 -3.0720 -3.4128 -1.7939 1.3946 -1.4320 0.4230 -0.2166 -0.5745 -1.6995 2.2517 5.6078 -3.9016 1.5927 5.8618 -2.7569 2.3317 4.2492 -4.4067 -3.6531 -3.8627 -2.9783 0.9556 4.7781 -2.0297 1.7525 3.2438 -3.7275 -1.5697 -3.6972 -3.3898 -2.7897 -4.0423 -3.9620 -1.6622 -2.3724 4.4275 4.5897 -0.8417 1.1823 1.6058 -2.2935 2.7356 -0.5924 1.6259 -2.5934 2.2960 -1.7855 1.4871 0.2946 -1.9206 -1.6737 -0.2144 -1.9156 4.4121 -1.7246 -3.3139 -2.1091 0.0057 -0.7053 5.2910 -0.1312 0.2116 -2.8274 1.5618 -1.9217 -0.8553 1.0144 3.5204 -2.5041 -3.9069 3.4583 -2.8911 -3.2474 1.8207 -3.1932
1.3674 -5.3557 1.9911 -3.8949 -2.3231 2.8924 -4.1662 -4.4440 4.0670 -2.3712 -1.0224 -6.9721 -3.2877 0.9583 -5.8615 -4.3641 -1.2176 -5.5513 -0.5968 -2.1375 1.9484 -1.3683 -3.7411 6.4232 -1.8066 2.6528 -1.0135 -0.9216 1.8364 1.8302 -0.5896 -0.7059 -4.7111 -2.4108 -2.1075 -3.6892 1.5646 -6.5102 2.9431 3.6648 3.4796 5.0819 0.2604 -6.8492 3.6219 2.4199 3.5703 4.2244 4.4494 2.2218 4.7719 0.0738 -5.9831 4.8443 1.5584 2.3366 4.3997 3.5844 0.9849 4.9027 1.5080 -0.1632 4.2067 -1.2688 -1.9107 4.2282 2.1970 1.3744 0.0507 -1.6325 2.7036 -3.7994 -2.3571 0.4329 -3.1294 -1.2535 -5.4279 4.8456 3.6072 2.9513 -1.3088 0.6740 0.1630 1.9162 -0.0360 1.1559 -0.9852 1.2381 4.3092 -6.5369 -0.0497 4.2061 -6.9107 1.6571 3.8180 -5.2371 4.2384 2.8200 -2.5452 -1.0207 3.6175 -6.0063 0.7573 3.2704 -4.4013 3.1654 1.0033 -2.2587 3.9973 1.6705 -3.1503 -3.4549 -3.1098 4.1081 2.3420 1.0899 4.0409 -0.1354 -1.7525 3.2359 -1.2434 1.4567 -3.0272 0.3439 -0.3061 3.2401 0.7281 1.7540 0.0888 -1.9432 -3.2675 4.1221 2.9100 1.7609 -1.1776 -1.4833 -4.1364 5.2681 -1.0809 1.8387 -1.5782 0.0663 1.2716 1.3644 -0.6340 3.1469 -4.8059 -3.0317 -0.5206 -5.7073 -1.9704 -0.8634 -4.2936
6.4124 -6.1897 5.3585 0.5324 -4.1259 2.1338 2.9013 -4.6776 1.9243 -0.7298 2.2997 -7.7136 -2.1721 1.4529 -5.9058 0.0319 0.4351 -6.3285 1.3374 -0.3377 1.1478 4.4842 -1.5328 2.6413 -1.5056 -0.8318 -2.8835 -2.1703 -1.3492 0.9486 -0.6302 4.2026 -5.3939 1.4531 2.7942 -5.2859 6.1006 -4.8025 5.8622 -4.4833 2.2932 5.4119 5.4828 -3.9846 4.7565 -4.4356 1.2245 4.3412 -3.5034 3.4070 5.1045 4.0457 -3.6702 5.0995 -3.0303 0.6728 4.2203 -2.0954 2.8720 4.9372 -0.6405 1.2513 3.7523 1.1688 -1.5065 3.2527 -3.2907 1.7490 -0.1015 1.3080 1.0294 -2.4545 -0.4635 2.3724 -3.5650 3.6666 -2.3607 4.6308 -4.6243 1.8168 -2.2496 -1.1067 0.6562 1.4355 -1.3896 0.8792 -1.3240 4.3428 -1.8235 -3.4947 4.4820 -1.0615 -2.3953 3.1472 -1.7076 -4.3095 -5.8707 2.3604 -2.5600 3.4456 -0.1091 -2.0407 2.1878 -0.8268 -3.9764 -5.6389 2.6151 -0.4560 -6.5134 2.8485 -1.5130 1.9038 -3.8622 2.7139 -2.0526 1.7822 3.8867 0.9604 -0.2007 2.5085 0.0237 0.9745 -3.2547 -0.4948 0.2113 2.6593 -2.5231 0.5095 -0.5130 2.2498 -2.3866 2.6600 -4.5277 1.9821 -0.8739 3.5834 -2.0611 3.2895 -1.0360 0.2291 -2.4834 -1.9289 -0.1713 0.6962 2.3378 0.0111 -2.7971 -0.7431 1.7317 -6.3121 0.0111 2.9160 -5.1872
-2.0273 -2.6403 8.4393 1.4470 -3.6254 5.7177 1.3978 -1.3369 6.5687 -3.2686 5.9386 -1.0856 -0.8333 6.0465 -0.7614 -2.1630 4.3622 0.4454 -1.0208 -4.0398 1.6505 0.1210 0.4800 4.0475 1.6025 0.4885 -2.1586 -1.4364 -0.5927 0.4647 -1.6167 4.7449 -3.4288 -2.8398 2.9616 -2.1272 -2.5795 -1.2470 8.2692 5.1550 0.4369 0.5630 -3.0402 -1.0522 6.8463 3.7095 0.8889 0.5658 5.2812 -0.9867 0.0629 -2.1313 -0.0708 6.1480 2.8530 -0.0508 1.3889 4.4067 -1.9256 0.8654 2.1493 -2.4274 1.6917 -0.6287 -2.8780 3.6662 -1.9163 -1.9012 -2.2897 1.3739 2.8025 -3.6604 -0.2490 3.1854 -1.8313 -1.7592 -0.5846 4.8575 -2.0830 -4.3125 -1.6093 0.2241 -2.1976 0.1979 -0.6967 0.1858 -2.1359 0.9931 3.4737 -7.8748 1.6870 4.3450 -7.1210 0.3302 2.3432 -7.2506 -1.6030 -5.4960 -2.1668 1.7814 4.1470 -5.6858 0.4227 2.1575 -5.9221 -1.0019 -3.9492 -3.5041 -0.9500 -5.3249 -3.3027 0.6031 -2.3730 5.8049 2.9629 -1.4659 0.8596 -0.0069 -3.3674 2.3787 0.1532 2.2518 -2.9522 0.6486 -2.2523 1.5747 -0.6834 -1.2049 -1.7532 0.2350 -1.8846 4.4173 -1.6680 -3.3404 -2.5073 -0.4514 -0.5376 4.4302 0.4645 0.8928 -2.3759 -0.6889 -1.2586 -0.2441 1.1641 3.1035 -5.1014 -2.0208 5.1164 -0.8565 -1.8023 3.9714 -2.2155
4.6104 -2.1365 7.9743 0.6542 -0.3594 6.8968 0.4540 -2.7847 7.0797 -0.7347 6.5662 -3.5774 1.2173 5.2598 -4.3028 1.0271 5.9945 -1.9601 1.5374 1.1169 2.5633 0.6236 -3.9490 3.9483 -0.3403 -0.3666 -3.8651 0.4415 -2.2054 0.3633 -1.3356 3.5590 -3.9462 -1.3391 4.2135 -1.5131 4.6546 -3.4798 7.2902 -4.9387 -2.2229 1.5416 4.6523 -3.2882 5.7941 -3.9829 -3.1322 2.2864 -5.2970 -0.9929 2.3476 3.5099 -4.0660 5.1875 -2.8555 -2.3945 2.9818 -4.0845 -0.2315 2.8437 -1.6450 -0.2235 3.2387 1.7056 -0.6576 4.1153 -2.3299 -0.5588 -0.9199 2.1695 1.3853 -3.7789 0.6806 2.8335 -2.4074 2.8037 -3.2449 4.2411 -3.1070 -2.2675 -2.6080 -0.3219 -0.1774 1.1799 -0.1632 0.3213 -1.6631 3.1021 1.7507 -7.9484 3.8290 2.4306 -7.0437 1.9736 0.9483 -7.5133 -3.9544 -2.1894 -3.7124 3.5099 2.3315 -5.6308 1.6788 0.8552 -6.2049 -3.9327 -0.2334 -2.8685 -4.4745 -0.9899 -3.9035 1.1873 -1.6711 6.3657 -2.7818 -0.9452 2.5590 0.7581 0.2578 3.3770 0.7367 1.7210 -3.4284 -0.3031 -0.4961 2.5882 -0.8474 -0.8157 -1.0975 0.9944 -1.7658 4.8649 -3.1182 -0.9771 -2.0985 1.4356 -3.1026 4.3147 0.0222 0.4528 -3.0221 -0.1775 -1.1537 0.2145 2.4672 1.5855 -5.2232 0.2552 5.5010 -3.1623 -0.6268 3.9948 -2.7582
2.1708 -4.0704 3.2697 -4.4948 -1.9308 3.6658 -4.6555 -4.2886 4.2836 -3.4524 -2.2538 -5.7601 -4.6384 -0.7437 -4.2193 -3.0666 -2.4197 -3.3316 -1.0768 -2.0561 1.7385 -1.3697 -4.5169 5.6476 -1.6546 2.7957 -0.9553 -0.6287 2.0590 1.9129 -2.2204 0.5136 -5.8099 -0.7389 -0.9967 -4.4350 1.8140 -5.2659 2.4225 3.9417 2.8659 4.8927 0.3306 -5.2890 2.1566 2.7191 3.1191 4.0359 4.4841 1.4704 4.6660 -0.3660 -6.0786 3.2376 1.6565 2.0747 4.3115 3.4157 0.4154 4.8713 1.1730 -0.3883 4.1750 -1.5391 -2.0356 4.0865 2.2602 1.1061 -0.0118 -1.3718 3.0321 -3.7418 -2.2323 0.7708 -3.2135 -1.6365 -5.4839 3.5552 3.7798 2.7597 -1.1468 0.5335 0.0576 1.8318 0.0063 1.1803 -0.9786 1.6876 4.5619 -6.3159 0.4248 4.4685 -6.7694 2.0121 4.1056 -4.9771 4.4660 2.7300 -2.3606 -0.6120 3.9054 -5.9231 1.0503 3.5904 -4.1919 3.3277 0.9319 -2.3050 4.2218 1.6540 -3.0876 -3.7999 -3.0477 4.4130 2.2093 0.6991 4.0017 -0.4881 -1.8373 3.0130 -1.0717 1.7244 -3.0336 0.0846 -0.4312 3.1128 0.8612 1.6849 0.0704 -2.4031 -3.2623 3.8585 3.0432 1.5861 -1.1650 -1.7393 -4.4646 4.4795 -0.9547 1.9859 -1.5556 0.1730 1.3050 1.3647 -0.3101 3.4613 -4.6893 -3.3352 -1.4665 -4.4743 -1.9899 -0.2870 -4.6223
3.7679 -6.1241 8.1326 3.5342 -3.7156 1.7583 5.4225 -2.9701 3.1261 0.1914 5.4590 -5.9249 1.5231 4.4496 -4.1233 -0.7127 5.3562 -3.6394 1.6665 -1.0596 0.8838 4.0668 -0.1743 4.8989 -2.0051 -0.8318 -3.5993 -1.9829 -2.3386 0.5583 0.2636 2.3572 -5.9817 -2.0086 3.2229 -5.3088 3.8458 -5.2751 6.8885 -4.7987 1.1075 4.5227 3.0656 -4.0012 7.0961 -4.5734 -0.2001 3.7914 -3.8529 2.1828 4.0275 3.8344 -2.8371 6.5234 -3.1344 -0.6477 3.9367 -2.4084 1.7359 4.1182 -0.7629 -0.0077 3.4889 1.7423 -1.8836 3.1035 -3.2813 0.6858 -0.1789 1.1607 0.3616 -3.0675 -0.4751 2.2050 -3.4594 2.9661 -2.0326 5.7075 -4.4657 1.7671 -2.1044 -0.8971 -0.3530 1.0682 -1.3714 0.1576 -1.6022 4.1618 -0.2011 -6.0687 4.1728 0.9324 -5.3460 3.1255 -1.1948 -5.8559 -5.7795 1.7161 -2.5652 3.1571 1.1471 -4.3300 2.1813 -0.9927 -4.9204 -5.7227 0.4406 -0.8573 -6.5664 0.9340 -1.8480 3.9192 -3.1109 3.0902 -2.2076 0.4200 3.3999 1.2241 -0.7834 2.2086 -0.1985 0.7297 -3.6259 -0.2918 -0.8079 2.2881 -2.4206 -0.4037 -0.7813 3.2357 -1.7748 3.3181 -4.4777 0.9255 -1.0026 3.4850 -1.2396 4.7087 -1.2858 -0.0709 -2.9581 -1.7487 -1.1535 0.3391 2.1886 0.2318 -4.1349 0.1240 4.6277 -4.6680 -0.5963 3.0321 -5.0310
2.0383 -7.3858 3.8145 -3.8768 -2.1032 2.8064 -4.1771 -3.7304 4.5971 -5.4019 0.2503 -5.9013 -5.2829 1.4238 -3.7489 -4.6235 -0.9418 -3.9002 -0.7444 -1.9745 1.7281 -1.3975 -2.3572 6.6227 -0.2661 3.2902 -1.6775 -0.4532 1.5574 0.8137 -2.9952 1.9047 -6.0371 -2.1442 -0.3257 -5.2271 1.7091 -6.6898 5.1111 1.1652 0.9373 6.7495 0.2635 -6.2621 5.1017 0.7912 2.2097 6.0227 2.6168 0.5646 6.5267 0.1211 -4.9338 5.8026 0.9702 2.0646 4.5262 3.1916 1.1205 5.2371 1.7745 -0.1834 3.6891 -1.2479 -1.3139 3.9553 2.2127 -0.1468 -1.0726 -0.7466 3.3831 -4.4201 -2.3289 1.6583 -3.5239 -1.2196 -4.4416 5.6345 4.5112 0.8458 -1.3369 1.0892 -0.0589 1.3792 0.2500 1.0362 -1.8412 2.3672 3.4408 -7.3690 1.2229 4.1097 -7.5973 2.5244 2.6677 -6.1512 5.3899 0.9143 -2.4176 0.1500 4.0709 -6.6191 1.5337 2.6378 -5.2439 3.6204 0.0037 -3.1770 4.8954 0.4238 -3.5406 -3.4506 -2.4605 4.2138 2.1626 1.2136 4.1279 -0.1493 -1.5262 2.9361 -0.8769 2.0699 -3.6689 0.6087 -0.2251 2.7291 1.2568 0.9978 -0.8017 -1.9419 -2.6231 4.2824 3.3748 0.2668 -1.8814 -1.4858 -3.0891 5.6425 -0.2725 2.2302 -2.2970 0.5174 0.8587 0.5230 0.2905 3.3550 -5.4880 -4.6100 0.3881 -4.6189 -2.9268 0.8775 -5.0146
0.9514 -7.4512 8.6529 -2.2990 -4.3630 2.5732 -1.1191 -6.4931 2.3257 2.2119 -2.1130 -5.3769 -0.1001 -2.9560 -5.4411 0.9256 -2.3326 -3.2906 -0.3616 -2.2795 0.6466 2.3550 -5.4722 2.4124 -3.0136 0.8357 -1.6531 -1.6400 0.9677 1.8464 -0.1211 -0.1180 -6.3521 1.1993 0.5800 -4.3186 0.4043 -7.3159 7.2538 2.8478 3.5372 4.5164 0.9096 -6.0371 6.6341 1.4613 2.9330 4.6176 3.5425 3.1674 3.2206 1.3567 -6.2989 5.2175 1.4973 1.4356 4.3904 3.5463 1.6676 3.0014 2.0469 -0.3097 2.6738 0.2037 -2.9238 2.8604 0.3575 3.0334 0.0125 -2.7076 1.6574 -4.4163 -1.2527 -0.2977 -4.0077 1.4633 -5.0554 4.5014 -0.5174 5.1062 -1.1091 0.3881 0.2626 0.9746 -0.7727 1.3733 -1.3637 -1.8120 5.5644 -5.9375 -3.0792 5.2473 -5.6175 -0.7677 4.5602 -5.8465 -0.7303 6.4085 -0.6602 -3.3905 3.9189 -5.1226 -1.0640 3.3201 -5.4212 -0.0509 5.3206 1.0425 -0.4648 6.5813 0.6230 -1.0515 -5.1231 2.9621 2.1288 1.1502 3.0479 0.6187 -2.0959 1.6609 -1.5789 1.1109 -3.5724 0.6946 -0.6333 2.0654 -0.8076 2.0746 -0.1027 0.2155 -4.4043 2.5361 -0.0930 4.4374 0.0293 1.4515 -5.0408 3.1244 -1.9070 1.1081 -2.1050 -0.7457 1.0509 1.0068 -2.4178 2.9984 -4.9927 0.8379 -1.9864 -4.7598 0.2503 -0.3081 -4.9630
-0.8016 -2.1910 8.6784 2.2574 -3.7511 5.5913 2.2720 -1.4770 6.4828 -2.3004 6.4333 -1.0998 -0.2260 5.4667 -0.2208 -2.3948 4.6968 0.6278 -1.3391 -4.0356 2.2074 0.7536 0.3123 4.1356 1.4248 0.3450 -1.9703 -1.4163 -0.5496 0.7714 -1.8293 4.5507 -3.1820 -2.6733 2.8755 -1.4993 -1.6275 -0.9275 8.6976 4.7486 -0.3525 1.9480 -2.2188 -0.6650 7.3343 3.3107 0.1180 1.9501 5.1202 -1.1487 0.7174 -1.2340 0.0881 6.4716 2.4810 -0.4479 0.8222 4.1788 -2.3163 0.5296 1.9792 -2.8241 1.5243 -0.2818 -3.0242 4.0505 -2.2284 -1.8832 -1.9431 1.1627 2.3870 -3.8265 -0.1007 3.1423 -1.8371 -1.0448 -0.6211 5.2342 -1.6218 -3.6664 -3.6184 -0.1666 -2.4737 0.4115 -0.8796 0.1333 -1.8368 0.2063 2.9243 -7.9705 1.2108 3.6259 -7.4161 -0.5642 2.0018 -7.1567 -1.7839 -3.7567 -5.0013 1.5146 3.4683 -6.0061 -0.2751 1.8472 -5.8523 -2.5678 -1.8534 -4.4594 -2.3470 -2.6926 -5.5459 1.4015 -2.5274 5.8319 2.7169 -1.9207 0.5617 -0.0809 -3.5473 2.6465 0.0131 2.0662 -2.8944 0.5031 -2.5200 1.6879 -0.9232 -1.2670 -1.4875 0.7801 -2.0542 4.5302 -2.1336 -2.4136 -3.3167 0.1857 -0.6640 4.6197 0.2934 0.7620 -2.1962 -0.8729 -1.3522 0.0183 0.7889 2.6300 -5.2437 -1.6538 5.1573 -0.6076 -1.7158 3.8925 -1.8936
-0.5536 -5.4926 7.4573 -2.5756 -2.5983 4.7761 -2.9711 -4.8890 4.0232 -0.2164 -2.1992 -6.1146 -1.6643 -0.2124 -6.2074 -2.5584 -2.3502 -5.3754 -0.4899 -1.8883 1.0931 -0.5167 -5.4626 1.6617 -2.6517 1.5095 -0.5301 -0.5981 1.7771 2.2165 0.2877 -0.1027 -3.8637 -0.7025 -2.2493 -2.9900 -0.1431 -6.7328 6.7013 4.4919 2.8908 4.2712 0.9894 -6.4022 5.7612 3.5626 2.1126 5.1760 5.2809 2.0004 3.3345 0.5305 -6.5629 4.3343 2.5875 1.2515 4.4024 4.6418 0.6522 3.0822 2.5406 -0.6194 2.7546 -0.0167 -2.5050 3.3637 1.6061 2.6622 -0.2846 -3.0438 2.1953 -3.2846 -2.2497 -0.1542 -3.1260 0.6881 -5.3217 3.6267 1.5454 4.9440 -1.3446 0.9313 0.3460 1.2172 -0.3866 1.4400 -1.0291 -1.7292 5.2217 -6.0152 -2.6551 4.3306 -6.4148 -1.1760 5.1430 -4.6768 1.9541 5.4142 -2.5935 -3.0953 3.2864 -5.5069 -1.5899 4.1806 -3.8318 2.2871 3.3098 -2.6378 2.4025 4.4673 -3.4003 -1.8944 -3.8788 4.3475 3.1321 0.7344 3.0869 0.5369 -1.9278 2.0748 -1.9260 1.2891 -2.8193 1.0833 -0.5350 2.3483 0.1671 2.2833 0.0035 -0.9912 -3.6481 3.1505 1.7655 3.5795 -1.4280 -0.2675 -4.9053 2.7282 -1.7316 1.4414 -1.3372 0.1174 1.4602 1.2700 -2.5707 3.2008 -4.2717 -1.3373 -1.4605 -5.4191 -0.8276 -1.0256 -3.7605
-1.2582 -2.1674 9.0214 0.6708 -3.9295 6.2242 2.5118 -2.3173 6.0707 -2.4675 6.0998 -0.2850 -0.0618 5.6338 -0.1081 -1.6823 4.1998 1.0658 -1.0561 -4.2828 2.1450 0.9310 0.3460 4.2370 1.4033 0.0965 -2.3035 -1.6482 -0.8617 0.8198 -1.4566 4.7905 -2.8143 -2.6640 3.0437 -1.4514 -1.6902 -0.7524 8.7278 5.0261 -0.1807 -0.1057 -2.1691 -0.6514 7.3013 3.6507 0.3841 0.1809 4.9316 -1.5894 -0.6530 -1.2226 0.2165 6.5091 2.8934 -0.5120 1.1380 4.1504 -2.4874 0.2821 2.0624 -2.8303 1.5327 -0.5227 -2.7980 3.9118 -2.2574 -1.8475 -1.9851 1.1491 2.4752 -3.6707 -0.0469 2.9839 -1.5573 -1.0694 -0.3134 5.1810 -1.5492 -3.7022 -3.5339 -0.0873 -2.5286 0.4039 -0.8305 0.0929 -1.6863 -0.0079 3.3971 -7.6947 0.8971 4.1688 -7.0666 -0.6079 2.2730 -6.9993 -1.6084 -3.8509 -4.9188 1.2681 3.8791 -5.6931 -0.2556 1.9984 -5.7306 -2.4244 -1.9240 -4.5172 -2.1252 -2.8095 -5.5469 1.0147 -2.4854 5.9494 2.7791 -1.9125 0.5719 -0.0002 -3.5075 2.6850 0.0342 2.0412 -2.7403 0.5859 -2.5300 1.6773 -0.9452 -1.3237 -1.4455 0.5635 -1.9928 4.5912 -2.0818 -2.4395 -3.3240 0.1826 -0.5350 4.6530 0.3091 0.6472 -2.2324 -0.9420 -1.5043 0.0492 0.7006 2.8495 -5.0382 -1.4321 5.0020 -0.1909 -1.5447 3.9482 -1.6367
-2.4238 -6.8984 6.1254 -0.7275 -5.2091 2.4214 1.3494 -5.8230 1.2414 -2.2923 -2.1678 -7.0726 -3.9548 -0.5165 -6.3295 -2.9230 -2.0459 -4.6975 1.6118 -2.0743 1.2414 3.4916 -4.6196 4.3824 -2.4016 2.3593 -1.8550 -1.4455 0.0550 0.7313 -1.1710 0.7012 -6.8992 -0.2602 -0.7317 -5.0320 -0.9635 -7.2705 6.0685 -1.6211 2.0149 6.5411 -0.1371 -6.1390 6.6257 -2.1283 1.1301 5.4248 -0.1217 1.8726 6.6783 1.1996 -6.0910 5.9302 -1.4695 1.4917 4.1119 0.5746 2.2529 5.3884 0.6579 0.1242 4.0787 0.7081 -2.9361 3.2666 1.3384 2.3190 -0.1649 -0.9265 3.2526 -4.2596 -2.0887 1.0636 -4.4841 1.4518 -4.7574 5.4535 0.9582 4.6368 0.7449 0.6516 0.3956 1.6366 -0.3738 1.2830 -1.5308 2.4647 3.9597 -6.7816 1.2273 4.1781 -7.2615 2.6421 3.4805 -5.4228 1.0977 5.9081 0.1897 0.0696 3.9338 -6.4197 1.5699 3.2553 -4.6432 1.6890 4.5480 -1.3397 1.5332 5.9013 -1.0578 0.7621 -5.4057 2.5670 0.0434 1.5035 4.1853 1.3825 -1.7506 2.6069 -1.0126 1.8295 -3.7502 0.4714 -0.5372 2.7241 -0.0782 1.7891 -0.2124 1.5112 -4.2070 3.1073 1.3477 3.7907 -0.2827 2.2652 -4.5531 4.3628 -1.3651 1.8679 -2.2910 -0.3675 0.6485 0.7420 0.2302 3.4685 -5.1678 -2.6797 -1.2340 -5.9491 -1.3672 -0.0474 -5.6728
0.5007 0.7522 9.9527 -3.1483 -2.5572 4.3765 -2.6430 -4.1850 6.1293 -2.2741 7.1030 -1.7212 0.0086 6.8590 -2.6017 -0.6154 5.7736 -0.4832 -0.5382 -3.0899 2.0491 0.8525 -4.4684 6.0167 1.6189 1.3653 -2.8195 -1.4334 0.0396 0.5872 -2.2281 5.1191 -4.0099 -2.3497 3.8327 -1.8446 -0.2236 -0.5577 9.7678 5.8599 -2.6602 1.1698 0.7081 -1.5661 9.1429 4.5686 -3.0892 0.5062 5.6394 -2.3740 2.6405 -0.0687 -2.4790 8.2276 3.5055 -2.0298 0.6919 4.5473 -1.3451 2.8435 2.2338 -0.6610 2.3471 -0.3081 -1.8926 4.0959 -1.2186 -1.3747 -2.1287 0.1561 2.3411 -5.0909 -0.0854 3.8976 -3.1612 0.4348 -2.3704 6.8836 0.4126 -2.9956 -3.1615 0.5745 -1.1262 0.6324 -0.4644 0.9305 -1.8954 -2.9482 2.1142 -8.0351 -1.9829 3.0424 -8.1615 -2.9500 1.2210 -6.8904 0.7266 -3.3067 -4.4838 -0.9414 3.1475 -7.1551 -1.9837 1.3164 -5.9603 -0.8177 -1.8432 -4.5935 0.0131 -2.6401 -5.3741 -2.1619 -2.9139 5.4661 3.2573 -1.7618 2.1639 0.3742 -2.3123 2.8113 -0.3348 2.4960 -3.6675 0.8040 -1.0669 2.0532 -0.2457 -0.4253 -1.4658 -0.7615 -3.0891 4.9089 -0.5887 -2.0435 -3.2840 0.2515 -3.3973 5.9860 0.4055 1.5404 -2.7753 -0.4592 -0.4465 0.0230 -0.9474 2.3294 -6.0867 -1.1050 6.1536 -1.8623 -1.6264 4.6940 -2.7599
3.8215 -5.6696 8.4546 0.7243 -4.6537 2.3335 3.1099 -5.1856 2.2768 1.2780 5.8135 -4.0321 2.6569 4.5571 -2.4262 0.2335 4.8038 -2.0451 1.3841 -1.1268 0.8705 4.6803 -2.0944 2.7212 -0.5325 -1.3072 -2.1059 -2.2080 -1.4458 0.9090 2.1763 2.8602 -4.8489 -0.3178 3.2325 -4.6348 3.3845 -5.2944 7.0605 -3.6527 3.3196 3.8837 3.7199 -3.8478 6.7979 -3.7158 1.8690 4.3178 -2.4022 4.0114 4.3835 4.2929 -3.6978 5.4112 -2.3738 1.1645 4.2921 -1.1224 3.3050 3.9748 -0.0658 1.1462 3.3175 1.2944 -1.8952 3.1422 -3.2451 1.5174 -0.1946 1.3667 -0.2961 -3.8454 0.9307 1.8646 -2.7744 3.7011 -2.5595 4.7593 -5.5581 0.8065 -0.8988 -0.7742 0.3640 1.1250 -1.3675 0.7815 -1.5748 0.5958 -2.3966 -7.5024 1.2838 -3.0001 -6.5144 0.0639 -1.0599 -7.3019 -6.4816 1.3468 -1.7964 1.5070 -2.3074 -5.2588 0.2762 -0.4170 -6.1411 -4.7798 2.6276 -1.8870 -6.0565 2.4348 -2.4079 2.0682 -4.3071 2.9337 -1.3676 1.9092 3.4415 1.1779 -0.7016 2.2100 0.2692 0.6127 -3.3264 -0.1851 -0.0412 2.3800 -2.4049 0.3487 -0.6633 2.4079 -2.8434 2.7351 -4.4724 1.6634 -1.0006 3.7148 -2.4605 3.3867 -0.5582 -0.0905 -2.2711 -1.8025 -0.3462 0.5392 1.0182 -1.0670 -5.0690 1.3035 4.6249 -3.0999 1.0033 3.1274 -4.0358
5.9453 -3.3232 1.4149 -2.5874 -3.4951 3.9900 -1.6166 -5.7337 4.1383 4.1748 1.7724 -3.5893 3.4748 -0.0707 -2.1184 2.2061 2.0372 -2.1391 0.1134 -2.1832 1.5266 1.4611 -4.5629 5.3436 -1.9990 -1.1477 -1.8941 -2.6594 0.0053 1.6900 2.7446 -0.4926 -5.0982 1.2992 1.5647 -4.9379 4.8079 -3.3635 2.4044 1.3468 2.2462 6.8503 3.7270 -4.2913 1.9072 0.3564 1.1641 6.4795 2.2255 2.6043 5.6704 3.2060 -5.1183 3.0563 -0.4903 1.6000 5.3024 1.4002 3.0215 4.4690 1.0038 0.7816 3.4584 0.0848 -2.2912 3.9374 -1.6922 2.7505 0.0414 -1.4983 -0.4156 -4.5384 0.7284 -0.5491 -3.4544 1.7686 -5.0676 3.0988 -2.4548 3.6052 -2.1987 -0.3894 0.4447 1.5181 -0.9379 0.7713 -1.1562 -2.3203 2.3951 -7.6608 -1.6713 1.2548 -7.9567 -2.7005 2.6794 -6.2891 -3.3777 4.5773 -2.5778 -1.3614 0.3030 -6.9046 -2.4186 1.7963 -5.3156 -3.5047 4.4644 -0.4533 -4.0311 5.1169 -1.5641 -1.3638 -4.2707 4.4262 0.3546 1.9869 4.1039 0.5372 -1.5256 2.7088 -0.6259 0.1235 -3.4215 -0.0188 -0.1127 2.7941 -1.8885 1.2684 -0.1909 -0.1247 -3.7742 3.7035 -2.5825 3.5562 -0.8180 1.1125 -4.4961 4.1696 -1.2813 -0.1736 -2.0977 -1.7043 0.5112 1.1045 -1.7110 0.5664 -5.6322 2.9826 1.0596 -2.9908 1.9503 0.4306 -4.3098
1.5781 -6.3442 5.9084 2.4344 -4.5686 2.1463 4.5424 -4.3457 3.3654 3.0645 3.9409 -1.9598 1.3441 3.4776 -0.2613 1.2789 5.5824 -1.5347 1.8066 -1.2088 1.2732 4.3119 -1.2158 4.8877 -1.9548 -0.0860 -3.8404 -1.8968 -2.1102 0.5183 0.9608 3.8664 -4.1578 -0.8029 3.4114 -2.4149 2.6169 -5.8250 6.8735 -4.3128 2.4495 2.7052 2.2559 -4.4255 7.3041 -4.4827 0.9770 3.0196 -3.3778 3.1357 3.6781 3.3098 -3.4588 6.8286 -3.1938 0.2899 3.4255 -2.0220 2.4652 3.7714 -0.6918 0.4007 3.4074 1.3635 -2.1694 3.4110 -2.6569 1.0811 -0.5781 1.1092 -0.3027 -4.3761 1.0770 1.6305 -2.8068 2.7091 -2.4608 5.9840 -4.9883 0.5325 -1.3636 -0.6344 -0.2351 1.0353 -0.8547 -0.0517 -1.8048 1.7201 0.2456 -8.5819 2.7861 0.1952 -7.7609 0.3786 0.1346 -8.0385 -5.8312 1.1154 -2.3101 2.5918 0.0234 -6.3324 0.2005 -0.0372 -6.7168 -4.0563 2.2955 -2.3195 -5.3121 2.1751 -2.9062 3.0618 -4.0388 3.4165 -1.9790 1.1210 3.0801 1.1966 -0.9486 2.5298 0.2633 0.7970 -3.7714 -0.2854 -0.6367 2.3759 -2.0031 -0.2321 -0.9529 2.8220 -2.5491 3.5691 -3.8540 1.3284 -1.4063 3.3699 -2.0050 4.8668 -0.9686 0.1812 -3.1567 -1.5199 -0.9669 0.2708 1.3481 -0.0769 -5.8253 1.6024 4.1074 -1.6126 0.5751 3.3390 -2.8623
4.5011 -6.4917 6.2672 -2.2561 -3.6461 2.4693 -1.0467 -5.7130 1.9756 3.0075 0.3855 -6.6137 1.9612 -1.6907 -5.8120 3.1133 -0.1992 -4.2274 -0.1685 -1.3370 0.9882 2.3609 -4.7000 2.0898 -1.7950 -0.0355 -1.0352 1.8885 1.6643 0.6081 -0.1283 0.4460 -6.3518 1.0580 1.9796 -4.7357 3.0734 -6.9727 6.1927 2.5833 2.4788 6.7355 2.5672 -6.8289 4.7791 1.2159 1.9151 6.4196 3.5909 2.0212 5.7042 1.3076 -5.9959 4.7623 0.7607 2.3460 5.0426 3.1751 2.4528 4.3134 1.7313 0.5625 3.5458 0.2425 -2.2717 3.1386 0.0282 3.7604 -0.3948 -2.4790 -0.1864 -3.6815 -0.0127 -0.2328 -3.8310 1.5809 -4.6727 4.2615 -1.9642 4.9549 0.5788 -0.0010 1.2041 1.8841 -0.1604 1.5603 -1.4180 -5.1555 2.0456 -6.1652 -4.7873 0.8057 -6.5343 -4.6205 2.6303 -4.9488 -2.9953 5.6988 0.0064 -3.8534 0.0536 -5.7164 -3.7617 1.9308 -4.1867 -1.7708 5.0730 -1.6215 -2.9187 5.7947 -1.3094 -1.0141 -4.4437 2.7974 1.7687 2.0173 3.9618 0.6460 -1.2020 2.1419 -1.2032 0.5367 -3.3027 0.4828 0.1716 2.7754 -0.3019 2.2991 -0.1889 0.2503 -3.6541 2.5145 -1.2023 4.5672 -0.5133 1.5012 -4.3979 2.9145 -1.1065 0.6313 -1.8019 0.6753 1.6894 0.7823 -3.3446 0.5987 -4.5968 2.2517 -0.2479 -5.4682 0.7239 0.6445 -5.1955
-2.2770 -4.0261 9.5572 -3.1073 -0.9377 3.5784 -3.9076 -3.1425 4.2628 -5.0177 -1.3124 -4.1911 -4.6381 -0.8812 -1.8066 -3.0267 -2.2358 -3.0768 -0.7794 -1.4705 1.0910 -1.5490 -5.2875 3.2335 -0.6671 2.6520 0.0118 1.9654 1.8241 1.5917 -3.9944 1.4472 -3.9917 -1.9300 0.0618 -4.4256 -2.3966 -3.7472 8.0797 6.1526 -0.0978 0.4198 -1.0526 -3.9182 7.4162 5.5700 0.7607 1.5263 6.2826 -1.5542 0.8180 -1.1818 -4.8686 6.2513 4.5634 0.0315 2.3962 4.9778 -2.1662 1.2955 2.7243 -1.6936 2.3144 -0.3248 -2.0312 3.3510 3.0718 0.7930 -1.4699 -2.2299 3.4279 -2.1649 -2.3730 0.9541 -2.0117 -0.5689 -4.3025 5.0794 3.3535 -0.0474 -3.8102 1.5353 -0.2706 0.6905 0.6799 1.4242 -1.4375 -0.9994 6.3156 -5.0818 -2.2957 6.2310 -4.7328 -0.0249 5.4265 -4.4770 3.4626 0.5810 -5.0492 -2.7229 5.2393 -3.7627 -0.4187 4.5205 -3.5661 3.2881 2.1547 -3.6226 3.4243 1.9001 -4.9832 -2.6855 -2.2543 4.1918 3.9475 -1.1191 1.6381 0.2524 -1.9370 1.9539 -1.4471 2.1315 -2.2024 1.4315 -0.9725 1.9479 1.9649 1.5840 -0.7907 -1.5712 -2.8976 3.3867 3.2341 1.0096 -2.9195 -1.2382 -4.2873 3.8760 -0.4531 2.1260 -1.0759 1.8247 1.0773 0.6264 -1.8263 4.3985 -3.2158 -3.9580 -1.0474 -3.1461 -3.0439 0.4341 -3.5740
-0.2969 -5.7045 6.4249 -1.4642 -4.0601 2.6150 -0.2852 -6.0957 1.9480 3.7212 0.6311 -5.7671 2.8831 -1.5581 -5.0173 3.4127 0.1895 -3.3651 0.7389 -1.8158 0.6179 2.9758 -5.1032 1.4509 -1.7023 -0.6001 -1.1472 -1.7101 0.6846 1.9876 0.6155 0.1026 -6.1196 1.1960 1.9552 -4.5100 0.8040 -6.6710 6.0648 1.8741 4.3454 5.0934 2.0838 -5.9127 5.8138 0.6079 3.5404 4.8809 2.8704 4.1433 3.9695 2.5414 -6.1356 4.3932 0.9206 2.0765 4.6504 3.1513 2.6731 3.7330 2.1227 0.4810 3.1423 1.0693 -2.5983 2.8573 -0.5716 3.3938 0.3301 -2.1172 -0.3711 -3.9058 0.3348 -0.3278 -3.5624 2.7062 -4.8682 3.7308 -2.3315 4.5576 -1.0551 0.5085 0.7301 1.3256 -0.6312 1.4596 -1.1534 -4.8862 2.1351 -5.9952 -4.3024 1.1116 -6.6435 -4.5481 2.4050 -4.6096 -3.1483 5.6612 -0.8176 -3.3349 0.2754 -5.9565 -3.6561 1.6273 -3.9713 -1.9607 5.4376 0.9397 -2.9575 6.2207 0.3643 -0.1597 -4.8134 2.7411 1.8594 1.9325 3.4734 1.4023 -1.5213 1.8391 -0.9725 0.3585 -3.2339 0.9810 -0.1553 2.3678 -1.1347 2.0104 0.0833 1.0125 -3.9876 2.2469 -1.5894 4.4439 0.1131 2.3270 -4.7103 2.4176 -1.1672 0.3310 -1.7413 -0.8212 1.0865 1.2391 -3.0068 0.5334 -4.6770 2.8553 -0.0717 -4.7457 1.1801 0.5482 -4.8605
5.1480 -4.7858 0.8540 -2.7473 -4.5110 1.3152 -1.8229 -6.5109 2.3664 2.8343 -2.6542 -4.7515 0.8115 -3.2533 -3.4998 2.7285 -2.2508 -2.3270 -0.5819 -2.0042 0.9765 -0.1228 -4.8190 5.0356 -2.7645 0.6773 -1.5330 -2.7156 1.1026 1.9461 0.8315 -0.5653 -5.3117 2.1964 0.3768 -3.4116 4.6902 -5.1052 2.2549 0.7567 3.8815 5.7051 3.3031 -5.6953 2.2114 -0.4630 3.5204 4.8827 2.0139 3.2653 5.1251 2.5020 -5.1864 3.3840 -0.5966 2.0170 4.7545 1.8684 1.7644 4.9682 0.5370 -0.0525 3.8993 -1.0163 -2.8316 3.1585 -0.4301 3.3775 0.9231 -1.8122 0.8955 -4.1487 -0.1991 -0.5519 -2.9143 1.1424 -5.6433 3.2827 -1.1329 4.9035 -0.9724 -0.4779 0.5255 1.7443 -0.8113 1.6788 -0.7799 -0.7813 3.7898 -7.1391 -1.3555 2.6288 -7.5014 -0.5092 4.0579 -5.7387 -0.9740 6.2705 -1.1831 -1.6903 1.6391 -6.4939 -0.8336 3.1474 -4.8042 -0.1774 5.8919 0.7568 -0.4059 6.9026 -0.1717 -2.0348 -5.0240 2.5472 0.6545 1.4391 4.1263 -0.2029 -1.8523 2.3380 -0.8450 0.8141 -2.9852 -0.4684 -0.4329 2.8239 -1.3676 2.3164 0.3897 -0.7320 -4.2704 2.7610 -0.6181 4.7054 0.3022 0.1117 -4.9129 3.8352 -1.6049 1.0382 -1.7080 -1.6059 1.2607 1.4425 -1.4236 1.8764 -5.1964 1.9300 -2.2433 -3.6103 1.2649 -0.6078 -3.9281
6.5513 -5.2307 5.4743 -0.2608 -4.7174 1.8798 1.9328 -5.7963 1.8321 4.0793 2.7417 -5.3355 3.1446 0.5115 -4.8979 4.2683 1.7490 -3.0923 1.4220 -1.2175 1.3344 4.1042 -3.2652 2.9878 -2.4932 1.9901 -2.9180 -2.3322 -1.0114 0.7478 1.0421 2.8120 -5.0689 2.0993 3.7716 -2.9917 5.2596 -5.7800 6.0269 -3.6914 2.9933 5.2776 4.2701 -5.9585 4.9024 -3.9597 1.8517 4.3186 -2.3713 3.6710 4.9729 2.9486 -5.3133 5.2519 -2.8165 0.8579 4.3297 -1.2321 2.6726 4.9562 -0.3588 0.5834 3.9492 0.8249 -2.4273 3.3360 -2.4694 2.4547 0.6895 -0.4986 -0.3966 -3.6888 1.0452 1.3905 -2.8480 2.8986 -3.9321 4.8357 -3.0238 4.7207 -0.2251 -0.6545 0.3879 1.5226 -1.1682 1.4112 -1.1109 -1.1250 -0.9132 -7.9003 -0.0188 -1.4260 -7.3322 -2.0985 -0.2083 -7.0861 -4.1516 5.2541 -0.8460 0.2085 -1.2622 -5.9070 -1.8957 -0.0694 -5.7642 -4.6402 3.2243 -0.4189 -5.1425 4.3911 -0.9861 1.0580 -4.8385 2.6098 -1.5180 1.5530 3.9787 0.9726 -1.0710 2.6722 -0.3383 1.0676 -3.3535 -0.3562 -0.3317 2.7379 -2.2100 1.2085 -0.1333 1.7342 -3.4901 2.7543 -3.3839 3.4051 0.0268 3.0343 -3.5562 3.5185 -1.4504 1.5344 -2.4529 -1.7557 0.0739 0.7517 -0.6830 -0.5931 -5.1532 3.3793 1.8826 -4.3071 1.8204 2.6406 -3.8573
4.8824 -0.1612 8.2580 2.6928 -5.0864 3.6019 4.8459 -3.9761 3.3313 1.8270 5.5035 -4.4057 2.0776 3.8401 -2.6214 0.4124 5.6397 -2.4032 0.3569 -3.8349 1.1676 4.1597 -1.1074 1.6665 -2.0602 -0.6156 -3.8007 -2.7658 -2.6475 -0.2906 0.5025 3.0090 -5.3153 -1.3522 4.4201 -4.3605 4.4266 -1.0040 7.0938 -4.0320 -1.9212 5.3291 3.7932 -0.1222 6.0479 -3.7973 -2.5537 3.9758 -2.8579 -1.0424 5.7019 4.3624 -0.4634 4.6940 -3.5880 -1.4911 2.9195 -2.6507 0.0448 4.6663 -1.0833 -1.0704 3.0591 1.2784 -2.5606 2.9467 -3.4660 0.6567 -0.1215 0.9886 0.3678 -3.0739 -0.4710 2.4086 -2.9463 3.2907 -0.6725 3.7583 -4.5322 1.7844 -2.1243 -1.2324 -1.1691 0.6234 -1.6707 0.2225 -1.6791 3.6655 -0.2515 -6.3647 4.1042 0.3837 -5.2632 2.2988 -0.7370 -6.4262 -5.5823 2.6926 -2.2373 3.1996 0.6176 -4.1520 1.4675 -0.5411 -5.3875 -5.4964 2.1665 -0.1747 -6.1907 2.9480 -1.0930 3.3861 -3.7429 3.6514 -2.4800 -0.5175 3.2685 0.4850 -2.5079 1.6604 -0.3223 1.0042 -3.4927 -0.9090 -1.9220 1.8124 -2.8116 -0.3666 -1.0255 2.7551 -2.7688 2.6723 -4.5252 1.4552 -0.7750 3.4817 -1.4432 2.6349 -1.4526 0.1237 -3.0321 -2.2803 -1.5216 -0.2051 1.9254 0.1906 -4.2154 1.0803 4.6913 -3.3730 -0.1362 3.6492 -4.1812
5.2421 -2.4311 -0.2426 0.7121 -3.7877 4.8672 -0.7038 -5.7484 4.4091 -1.7434 -1.6950 -6.2638 -2.3459 -2.5999 -4.0554 -0.4671 -3.5685 -5.3132 -2.7957 -2.5022 3.5738 -0.5514 -5.2516 0.6024 -2.1226 2.7494 -2.4327 -3.4006 1.4720 1.1770 0.9862 -0.8384 -5.1582 0.2481 -1.6445 -2.8823 4.6664 -3.5633 0.5704 -2.9159 1.8682 6.8000 3.3807 -4.0359 -0.0608 -3.5155 1.6367 5.4309 -1.5821 1.1645 6.9236 2.4650 -4.5930 1.0010 -2.5680 2.0860 4.3400 -0.6225 1.6242 5.8435 -1.1321 -0.0048 4.0476 -0.5390 -2.5012 2.7561 -0.1345 2.7045 1.0812 0.2371 2.4632 -4.0522 -1.0550 0.3323 -4.0094 1.2345 -3.8488 1.0141 -0.0208 5.2128 0.8814 -1.4838 0.2474 1.6279 -0.9122 1.4976 -0.9008 4.4968 2.4726 -4.4688 3.7202 2.6570 -5.5514 3.8914 2.2529 -3.1677 0.8118 6.0676 0.1594 2.2760 2.6254 -5.4203 2.5528 2.2275 -3.0460 1.4750 4.0983 -0.3047 1.7208 5.4412 -0.5670 0.1990 -4.7113 3.7869 -1.1960 1.4525 4.4501 -1.9271 -1.9136 2.6204 -0.3067 1.3524 -3.1832 -1.9350 -0.4098 2.8267 -1.3220 2.2320 0.2702 -0.5258 -4.0109 2.6539 0.4410 3.9509 0.5416 0.0391 -4.4549 1.3275 -1.2309 1.9514 -2.1629 -2.1895 1.2934 1.0693 1.7113 2.4069 -4.2194 -1.1969 -2.2861 -4.9847 -0.0657 -1.1400 -4.2058
6.8289 -4.4843 2.6590 -2.1410 -4.8082 2.3865 -0.4918 -6.4473 3.1317 3.8315 2.9459 -3.5131 3.4480 1.5804 -1.5019 1.6174 2.9272 -2.4513 -0.4050 -2.1603 1.2270 0.7826 -4.0663 5.6726 -1.6876 -1.0514 -1.5206 -3.0476 0.4117 1.3427 3.5463 -0.0916 -4.0721 1.5845 1.2264 -4.9419 5.3497 -4.2829 2.4469 -0.2851 4.5697 5.0477 4.6077 -4.6260 3.7144 -1.5348 3.7608 4.7656 0.8306 4.2143 4.0865 3.3317 -3.8244 3.7915 -1.2379 2.2754 4.7977 1.1184 2.7273 4.1119 0.1545 0.4596 3.7937 -0.5707 -2.6224 3.5539 -1.4416 3.0458 0.0869 -0.5966 -1.2712 -4.0208 1.2912 -0.2719 -2.7883 2.2119 -4.7094 3.9714 -1.6995 4.1689 -2.1525 -0.7361 0.4842 1.5188 -0.8137 1.0664 -1.1783 -2.9788 -0.2746 -7.4343 -1.8180 -0.9320 -7.6061 -3.3887 0.1367 -6.1040 -2.3265 5.3476 -2.5506 -0.9799 -1.2386 -6.4609 -2.6134 -0.1484 -5.0430 -2.7706 5.1341 -0.4775 -2.9817 5.9575 -1.5791 -1.0674 -5.0779 3.4173 -0.1390 1.9419 3.8139 -0.0433 -1.6613 2.5083 -0.1701 -0.1076 -3.1476 -0.6476 -0.2831 2.7389 -1.8211 1.6343 -0.3111 0.0148 -4.0118 3.3821 -2.0300 4.0617 -0.8087 1.0201 -4.2430 4.4820 -0.9866 -0.1090 -1.8778 -1.9500 0.7858 0.9354 -1.3513 -0.8484 -5.2282 2.8253 2.0836 -2.7840 2.3579 0.7061 -3.8309
0.7984 -2.0103 9.9550 0.6758 1.9941 4.5626 -1.1879 1.4069 6.0333 -6.0468 2.6896 -2.0570 -4.6252 2.6101 -0.0543 -4.7651 0.6529 -1.5399 -0.3297 0.3037 1.1599 -2.6656 -1.3033 4.4600 1.2604 1.6995 -1.1464 2.8265 -1.2828 -1.1714 -3.4379 4.2420 -2.4370 -3.3545 2.0721 -3.7240 0.3576 -1.2930 8.7037 3.6245 -5.2934 3.4993 0.4092 -2.2408 7.5315 4.4466 -4.1935 2.8639 2.5079 -5.8022 2.6109 -0.9195 -2.2369 6.8172 3.5532 -3.1140 2.2974 2.4859 -5.1599 1.2404 1.1670 -3.0871 1.6005 0.4556 -0.6162 3.1967 0.2981 -2.0258 -3.2935 -0.1213 3.8366 -2.1207 -1.9564 2.2991 -1.5221 -0.7144 -2.1062 5.3994 0.6986 -1.1601 -5.6305 0.7090 -1.7790 -0.3744 -0.0262 0.1635 -2.3088 1.2509 5.9155 -5.5982 0.4617 6.5494 -4.7127 1.5961 4.5202 -5.3948 0.9862 -1.8062 -6.8317 -0.0456 5.8372 -3.5545 1.1310 3.8624 -4.3184 0.9849 -3.3334 -5.3467 1.1660 -3.1092 -6.7073 -0.0861 0.8370 5.1690 2.5398 -3.6484 1.3061 -0.0527 -0.9311 1.8048 -0.6937 2.4511 -2.3438 1.0135 -1.6910 1.0341 0.9571 -0.8532 -2.6018 -0.6429 -0.0737 4.0898 0.7295 -2.1850 -4.6952 -1.4579 -1.2093 4.6655 0.3048 1.4271 -1.8673 1.6064 -1.3204 -1.3177 0.2562 4.5388 -3.3728 -4.7469 2.1635 -1.4930 -3.3821 2.7930 -2.4653
1.5265 -8.4473 2.0018 -3.6731 -1.3146 3.6597 -3.7835 -3.6311 4.4223 1.3192 -2.6779 -4.4340 0.1050 -2.9162 -2.3076 1.4198 -0.8885 -2.7658 -1.1799 -1.0046 1.5124 -0.4127 -3.3040 5.9416 -2.1990 1.6394 -0.4199 0.1451 2.7087 1.7135 -1.6779 -2.2386 -4.7820 -0.4707 -0.0303 -4.8984 0.8205 -7.1158 2.0601 5.2310 2.5055 3.8142 0.6039 -6.7246 3.5006 3.8132 2.8858 4.1910 5.5066 1.0251 3.9584 0.5643 -5.2216 3.6228 2.8566 1.7122 4.2237 4.5329 0.1729 3.1714 2.1317 -0.3702 3.0470 -0.7527 -1.3407 3.8250 2.1592 2.2114 -0.9697 -3.4326 1.2985 -2.8638 -1.8826 -0.6260 -2.7499 -0.6825 -4.8172 4.2143 2.7393 4.4161 -2.0322 0.9586 0.6105 1.1518 -0.0960 1.3764 -1.3592 -4.2477 4.7081 -5.3168 -4.9534 3.5765 -5.4922 -3.1549 4.7387 -4.3616 3.1050 4.7721 -3.3298 -4.6405 2.3967 -4.7072 -2.8660 3.6457 -3.6329 2.7119 2.6794 -3.4019 3.1008 3.7627 -4.1827 -2.9490 -2.3705 4.4650 3.1379 0.7569 3.0866 -0.1304 -1.1767 2.4541 -1.9866 0.8829 -2.7030 0.7912 0.0341 2.4648 0.6991 2.2902 -0.5735 -1.5535 -2.6247 3.9207 2.4811 3.0579 -2.1325 -0.8092 -3.5842 4.8152 -1.4734 1.3561 -1.3676 0.5668 1.9077 0.8830 -3.6320 2.4211 -3.8170 0.5262 -1.9386 -3.3802 -0.9135 -1.1861 -4.1400
-0.9570 -6.1975 5.1205 -0.9149 -2.0106 6.9499 -3.1326 -2.7658 6.2593 -3.6186 -2.2523 -4.8734 -3.1186 -1.8315 -2.5007 -1.2939 -2.4266 -4.0521 -0.0869 0.9395 4.1680 -3.5437 -1.4953 3.1393 1.2340 3.0050 -3.1193 1.7957 2.5893 1.5456 -3.6287 0.7271 -4.2308 -1.5002 0.1561 -5.4650 -2.0628 -6.4521 4.1265 4.7974 -1.3195 4.5107 -1.8279 -5.6231 2.8885 4.4658 0.0208 3.8926 5.2423 -2.3483 3.4932 -2.7839 -4.4560 2.8660 4.1651 -0.0653 2.4141 4.1923 -2.5909 2.4286 1.9986 -1.4369 2.4414 -0.2045 -1.4335 4.1328 2.9022 0.5625 -0.9975 -1.8978 2.9999 -2.3905 -1.3954 0.6089 -2.8982 -2.0444 -3.2222 2.8209 4.3246 1.9807 -2.5255 1.0257 0.4292 1.2031 0.6936 1.5604 -1.3889 -3.2099 6.2860 -4.8135 -4.1065 5.5994 -4.0831 -1.8118 5.8966 -4.7993 4.8293 1.7684 -3.8071 -3.6756 4.4632 -3.2885 -1.4120 4.8538 -4.0509 3.8345 -0.0400 -3.2786 4.5634 0.5696 -4.2949 -1.7111 -2.5596 5.7878 3.4482 -1.3386 2.0153 -0.0376 -0.1819 3.2978 -0.9519 2.0403 -3.0807 1.2654 -0.1137 2.5207 1.9336 1.6807 -0.6640 -1.6388 -1.6250 4.5927 3.6810 0.7884 -2.2303 -2.5179 -2.0949 3.4531 0.4422 2.2580 -2.5502 1.5792 1.6325 0.8043 -2.3839 4.0858 -3.2859 -2.6007 -1.6775 -3.9143 -2.3444 0.0563 -4.2896
4.4477 0.6302 1.2691 0.6355 -4.7828 2.1331 2.8748 -5.4484 2.8512 2.4031 5.2550 -4.2143 2.8221 2.8914 -4.7515 3.4712 3.7913 -2.5536 1.0113 -1.4978 1.4724 2.6952 -3.1687 5.7439 -1.9193 -0.1242 -3.3299 -2.6161 -1.6239 0.7671 -0.1191 3.4139 -4.1138 0.5674 4.2650 -1.8449 5.1705 0.4800 2.5844 -4.7850 -0.7361 6.3760 5.4111 -0.9806 2.8726 -4.1914 -1.8791 5.5788 -4.6451 0.5796 5.6376 4.7632 -1.3532 4.1832 -2.7462 -1.5964 5.2255 -3.2014 0.8503 5.2661 -1.2025 -0.0154 4.0807 0.8133 -2.3198 3.7187 -2.6356 1.7668 -0.1791 1.1658 -0.4245 -3.5861 1.0446 1.7687 -2.4087 4.2717 -2.7029 4.1169 -3.9998 2.0599 -2.2840 -1.2446 0.0220 1.6565 -0.9995 0.3004 -1.2541 1.5189 -1.2454 -7.7824 2.6005 -1.3513 -6.9898 0.2477 -0.8267 -7.2218 -5.2028 2.7103 -2.5471 2.4973 -1.0434 -5.5744 0.1514 -0.5514 -5.9098 -4.8891 2.9076 -0.4475 -5.7701 3.2332 -1.4745 1.6682 -4.6170 3.2263 -2.6384 -0.2971 4.4556 0.6243 -1.1337 2.7909 0.2957 0.7652 -3.2496 -0.8461 -0.7505 2.8066 -2.2404 0.3478 -0.5231 2.0422 -3.1556 3.4171 -3.8449 2.1984 -0.9113 3.0055 -3.0064 4.5682 -0.9905 0.2769 -2.6307 -2.0686 -0.5253 0.6928 1.3242 -0.6415 -5.0513 2.4343 3.8524 -3.6517 0.8176 3.4326 -3.0062
2.3913 -7.3437 1.1801 -3.8028 -2.8070 4.6821 -3.2667 -5.1064 4.0550 1.4630 -2.7786 -5.7657 -0.3967 -3.4740 -4.3152 1.6224 -2.4634 -3.3319 -2.1770 -0.6089 2.1571 0.3174 -4.3957 4.3463 -2.0992 1.1542 -0.7459 -0.6659 2.7139 1.8168 -0.9445 -0.8410 -5.8327 1.0382 0.1658 -4.6371 1.8476 -6.2079 0.3490 2.6669 1.4480 6.7447 1.7816 -4.9564 1.1905 1.3076 1.7861 6.1747 3.3097 0.3082 5.9836 0.3959 -4.3570 1.1336 1.4100 2.1244 4.7031 3.4089 0.6182 4.5041 1.1797 -0.1817 3.7066 -1.1395 -1.8989 3.8492 2.0777 2.5031 -0.1550 -2.7317 1.1713 -3.4402 -1.0297 -0.6121 -3.2341 -0.4202 -4.8659 2.2063 2.4945 4.9665 0.1905 0.4165 0.6813 1.5597 0.1647 1.3887 -1.2004 -3.2872 4.5405 -6.0170 -3.7334 3.3325 -6.4043 -2.5478 4.6773 -4.7741 3.1458 5.9332 -0.5770 -3.5040 2.1707 -5.5629 -2.3320 3.6010 -3.9966 3.1935 4.1467 -1.7403 3.5783 5.4835 -1.7424 -2.6683 -3.7899 4.5023 2.0781 1.0219 3.9084 -0.9081 -1.0786 2.5956 -1.3136 0.8586 -3.0036 -0.0166 0.1296 2.8285 0.5703 2.3534 -0.2007 -1.6511 -3.2844 3.4933 2.5324 3.8337 -0.6112 -0.4713 -4.2210 3.4232 -1.1576 1.1576 -1.5341 0.0463 1.9522 1.1650 -2.8200 2.2927 -4.4104 0.6830 -2.4363 -4.5159 -0.0365 -0.8061 -4.7008
6.7256 0.4260 4.3897 1.6387 -3.2781 5.3986 3.5696 -4.2419 4.2435 2.9803 5.2594 -2.7599 2.7179 3.8343 -0.7719 0.7391 4.8397 -1.8361 -1.0644 -3.8908 3.2829 2.8383 -3.6681 0.8097 -2.0183 0.4915 -3.6828 -3.6354 -1.8721 0.0344 3.2199 2.1120 -3.1803 1.2933 3.2135 -4.3836 5.7509 -0.6965 4.1352 -5.2405 1.7144 3.5294 4.7842 -0.2922 3.0501 -5.5956 0.2427 3.5977 -4.0770 2.0708 4.4287 4.6165 -1.4253 2.0681 -4.4041 -0.6624 3.8372 -2.8332 1.2579 4.1318 -1.9531 -0.9639 3.4869 0.5984 -2.1994 2.9076 -2.6162 1.4181 -0.0837 1.1214 -0.6226 -2.8857 0.8019 1.7680 -2.2553 3.2240 -1.5933 1.7446 -3.4602 2.9277 -1.9139 -1.6947 -1.1151 1.0524 -1.3573 -0.0867 -1.5379 2.5327 -2.3918 -6.5191 3.4173 -1.8413 -5.6683 1.1152 -2.3738 -6.2056 -4.5752 3.7563 -2.0204 2.9539 -1.2244 -4.4387 0.6858 -1.8088 -5.0637 -4.7252 2.8384 -0.1025 -5.3595 3.7349 -0.9572 2.5486 -3.1279 4.2007 -3.1213 -0.0164 3.3693 -0.6722 -2.8511 2.4019 0.3034 0.6313 -3.1171 -1.8196 -1.8677 2.2754 -2.5990 0.1014 -0.8304 1.7740 -3.1547 2.8950 -3.6067 2.3460 -0.6629 2.6635 -2.8511 1.7107 -1.1503 0.3590 -2.8245 -2.7150 -1.0626 0.1238 1.6393 -1.1891 -4.1566 2.0979 4.2294 -2.0927 1.9421 2.7964 -3.1543

>  <OB_ATOM_TYPES> (1rneA1)
C.3 C.3 C.3 C.3 C.3 C.3 O.3 O.2 O.2 O.2 O.2 O.2 C.3 C.3 C.3 C.3 C.3 C.3 C.3 C.3 C.3 C.3 C.3 C.3 C.3 N.am N.ar N.am N.am C.ar C.ar C.ar C.ar C.ar C.ar C.ar N.ar C.3 C.3 C.3 C.3 C.3 C.3 C.3 C.ar C.2 C.2 C.2 C.ar C.3 S.O2

>  <ENSEMBLE_RMSD> (1rneA1)
3.283 3.693 3.728 3.740 3.802 3.839 3.868 3.957 4.003 4.101 4.155 4.166 4.232 4.253 4.295 4.368 4.376 4.377 4.410 4.442 4.455 4.479 4.531 4.559 4.582 4.625 4.685 4.696 4.709 4.761 4.789 4.822 4.874 4.885 4.927 4.945 5.011 5.017 5.117 5.186 5.195 5.294 5.302 5.432

$$$$
