
 OpenBabel03071213D

 21 22  0  0  0  0  0  0  0  0999 V2000
   35.0380   12.8870   12.2820 N   0  0  0  0  0
   33.5100   11.6060    5.5240 O   0  0  0  0  0
   32.5210   15.0100    4.9370 O   0  0  0  0  0
   30.2890   17.9340    7.2820 O   0  0  0  0  0
   28.7220   16.8800    5.5630 O   0  0  0  0  0
   30.9960   14.4370   10.5820 O   0  0  0  0  0
   31.1010   17.3240    5.0660 O   0  0  0  0  0
   32.3540   12.1680    4.9290 C   0  0  0  0  0
   31.5680   12.6560    7.4420 O   0  0  0  0  0
   30.4360   15.5520    6.5890 O   0  0  0  0  0
   33.6660   13.1000    9.0270 C   0  0  0  0  0
   34.5270   12.7960    9.9960 C   0  0  0  0  0
   32.9740   13.7080   11.4460 N   0  0  0  0  0
   32.5960   14.3630    6.2210 C   0  0  0  0  0
   31.7990   13.0360    6.0580 C   0  0  0  0  0
   31.6240   15.0230    7.2860 C   0  0  0  0  0
   31.4660   13.8380    8.2720 C   0  0  0  0  0
   32.4970   13.6750    9.2330 N   0  0  0  0  0
   34.1690   13.1480   11.3050 C   0  0  0  0  0
   32.0800   13.9480   10.4840 C   0  0  0  0  0
   30.0590   16.9600    6.1320 P   0  0  0  0  0
  1 19  1  0  0  0
  2  8  1  0  0  0
  3 14  1  0  0  0
  4 21  1  0  0  0
  5 21  1  0  0  0
  6 20  2  0  0  0
  7 21  2  0  0  0
  8 15  1  0  0  0
  9 15  1  0  0  0
  9 17  1  0  0  0
 10 16  1  0  0  0
 10 21  1  0  0  0
 11 12  2  0  0  0
 11 18  1  0  0  0
 12 19  1  0  0  0
 13 19  2  0  0  0
 13 20  1  0  0  0
 14 15  1  0  0  0
 14 16  1  0  0  0
 16 17  1  0  0  0
 17 18  1  0  0  0
 18 20  1  0  0  0
M  END
>  <MOLID> (1robA1)
1robA1

>  <SMILES_CANONICAL> (1robA1)
OC[C@H]1O[C@H]([C@@H]([C@@H]1O)OP(=O)(O)O)n1ccc(nc1=O)N	

>  <FINGERPRINT> (1robA1)
0000000000000000000000000000001000000001010000000000000000000000100000000000000000000100000110001000100110001001000011100000000000000000001110000000000011100100000000000000000001000001010000000000000000000000110101000000000000000000000000000010100000000000000001000000000001100001000000101000000110000000000000001011000000000100000000000000000000001100010000000000000110010000000001000000000000000000100100000000000000000011110010100000000100110000000000000010100000010000100000000000000000011110110011100000110000000000001011100000000000100000000000000000000000000000000000000000100111000000000000000000000000000000001000000111000000000011100000000000100000000000001000000001110000000000000010000001000000100111100000000000000001000001000011000110000000001000000100000001000000000000000001000000000001000000000000000000000000000010000001100000000000000010000000000001000000000001000000000111000000000000000000000000001000001000000000010100011000000000000101000100000101101000000000000000000000000000000000001000000011000000

>  <MACCS166> (1robA1)
000000000000000000000000000010000000110000101001000010001000010010000001001011010111100011010011111001000100110110001011110101100111101111110111010101111111111010111000

>  <OB_MW> (1robA1)
323.052

>  <OB_logP> (1robA1)
-1.8648

>  <OB_PSA> (1robA1)
187.17

>  <OB_MR> (1robA1)
66.7581

>  <OB_ATOMIC_CHARGES> (1robA1)
-0.1069912914 -0.2176084555 -0.2176373099 -0.1145328732 -0.1145328732 -0.2443327272 -0.2223841407 0.2141884383 -0.3305578674 -0.265409769 0.0850191802 0.0565837979 -0.1739090301 0.2134777952 0.1829542747 0.2081712409 0.2393770517 -0.2536224584 0.1758540454 0.3531585385 0.5327344332

>  <MCT_HBD> (1robA1)
5

>  <MCT_HBA> (1robA1)
11

>  <ENSEMBLE_TOTAL> (1robA1)
42

>  <ENSEMBLE_COORDS> (1robA1)
2.9431 -1.4010 4.3936 1.4151 -2.6820 -2.3644 0.4261 0.7220 -2.9514 -1.8059 3.6460 -0.6064 -3.3729 2.5920 -2.3254 -1.0989 0.1490 2.6936 -0.9939 3.0360 -2.8224 0.2591 -2.1200 -2.9594 -0.5269 -1.6320 -0.4464 -1.6589 1.2640 -1.2994 1.5711 -1.1880 1.1386 2.4321 -1.4920 2.1076 0.8791 -0.5800 3.5576 0.5011 0.0750 -1.6674 -0.2959 -1.2520 -1.8304 -0.4709 0.7350 -0.6024 -0.6289 -0.4500 0.3836 0.4021 -0.6130 1.3446 2.0741 -1.1400 3.4166 -0.0149 -0.3400 2.5956 -2.0359 2.6720 -1.7564
2.3774 -0.6248 4.7269 1.4817 -2.9808 -3.2219 -0.4159 0.4611 -3.5115 -2.2448 2.9925 0.5276 -2.7654 1.8853 -1.7751 -0.7487 1.1605 1.8743 -1.2392 3.8304 -1.5636 0.1042 -2.6365 -3.1664 0.1192 -1.8326 -0.8955 -0.3323 1.6782 -0.7204 1.2039 -1.7824 1.5109 1.7715 -1.8811 2.7137 0.7411 0.2560 3.3104 -0.2552 -0.1753 -2.3420 -0.0271 -1.5209 -2.2142 -0.2390 0.3759 -1.0456 0.0451 -0.6617 -0.1688 0.3836 -0.7340 1.1792 1.5987 -0.6889 3.5867 0.0711 0.2740 2.0977 -1.6299 2.6050 -0.9024
2.3266 -0.5625 4.8056 1.1319 -3.1382 -3.1996 -0.7426 0.2485 -3.5100 -2.5792 2.3005 0.1689 -2.1857 2.6126 -2.3946 -1.2166 0.4786 2.0338 -1.0552 4.0427 -0.7180 -0.2278 -2.8122 -2.9476 0.0844 -1.8150 -0.7809 -0.2256 1.7109 -0.8615 1.8360 -1.1707 1.2712 2.3982 -1.2944 2.4738 0.5110 -0.0412 3.4210 -0.4488 -0.2801 -2.3138 -0.2303 -1.6163 -2.0916 -0.2355 0.3864 -1.0916 0.1359 -0.5829 -0.1785 0.6310 -0.5427 1.1087 1.6843 -0.5976 3.5810 -0.0953 -0.0102 2.1726 -1.4967 2.6840 -0.9488
2.3935 -0.5883 4.8415 -0.4335 -2.6650 -4.0074 -0.1779 0.5256 -3.4262 -2.5080 2.8661 0.3058 -2.6289 1.6631 -2.0072 -0.7876 1.0784 1.9626 -1.2771 3.7162 -1.6674 0.6644 -2.5089 -3.1234 0.4266 -1.7832 -0.8456 -0.3660 1.6602 -0.6135 1.3257 -1.7561 1.6140 1.8220 -1.8791 2.8447 0.6994 0.2121 3.4377 -0.0282 -0.1292 -2.2668 0.3187 -1.4500 -2.1611 -0.1266 0.3837 -0.9594 0.2043 -0.6463 -0.0928 0.4832 -0.7297 1.2672 1.6028 -0.6912 3.7125 0.0728 0.2318 2.1989 -1.6795 2.4900 -1.0143
1.9391 -0.9342 5.0604 -0.2204 -2.5921 -4.0551 -0.0932 0.6218 -3.4672 -1.9411 3.7487 -0.1373 -2.9978 1.4121 -0.6294 -0.6343 1.2111 1.9077 -1.8576 2.7394 -2.3979 0.8776 -2.3736 -3.1838 0.5927 -1.6801 -0.9015 -0.3766 1.7179 -0.6571 1.3175 -1.7451 1.5940 1.7221 -1.9446 2.8472 0.6035 0.1419 3.4692 0.0778 -0.0354 -2.3111 0.4807 -1.3401 -2.2140 -0.0563 0.4588 -1.0008 0.3084 -0.5627 -0.1356 0.5406 -0.6716 1.2347 1.3869 -0.8511 3.7957 0.1203 0.2781 2.1752 -1.7900 2.4008 -0.9934
2.1649 -0.8102 4.9859 -0.6636 -2.6701 -3.8280 -0.1175 0.5923 -3.4621 -2.5999 2.6581 0.3266 -2.6323 1.5018 -2.0097 -0.5450 1.2542 1.9015 -1.5016 3.6798 -1.6435 0.5765 -2.4731 -3.1646 0.5412 -1.7070 -0.8830 -0.3503 1.7138 -0.6582 1.3330 -1.7493 1.6050 1.7446 -1.9368 2.8582 0.7338 0.2120 3.4434 0.0742 -0.0551 -2.3036 0.3775 -1.3849 -2.1962 -0.0261 0.4549 -0.9971 0.3340 -0.5644 -0.1292 0.5892 -0.6565 1.2363 1.5158 -0.7831 3.7662 0.2088 0.3199 2.1652 -1.7571 2.4035 -1.0129
1.8373 -0.8243 5.0385 -0.2794 -3.0530 -3.5243 -0.0897 0.7235 -3.5083 -1.7646 3.9122 -0.4084 -2.9154 1.6028 -0.0319 -0.8323 1.0304 1.8056 -2.1784 2.3494 -2.2827 0.8844 -2.2635 -3.3367 0.7355 -1.6187 -1.0136 -0.3516 1.7364 -0.6667 1.4720 -1.6628 1.5385 1.7932 -1.8645 2.8183 0.4272 0.0755 3.4111 0.1330 0.0444 -2.3742 0.5598 -1.2546 -2.3169 0.0064 0.4991 -1.0513 0.4160 -0.5326 -0.2187 0.6203 -0.6569 1.1546 1.3129 -0.8170 3.7600 0.0183 0.1922 2.0934 -1.8049 2.3818 -0.8864
2.0692 -1.0455 4.9406 1.6263 -3.1229 -2.8422 -0.5658 0.7053 -3.3928 -1.2901 3.4837 -2.2183 -2.4913 3.4819 0.0939 -0.9354 0.8760 2.0330 -2.9865 1.7577 -1.6206 0.7828 -2.1158 -3.3808 0.5565 -1.6169 -1.0068 -0.7541 1.6188 -0.4677 1.4824 -1.6635 1.4272 1.9771 -1.8725 2.6456 0.5343 -0.0725 3.4672 -0.2409 0.0211 -2.2856 0.3446 -1.2182 -2.2929 -0.3497 0.4286 -0.9416 0.1801 -0.5897 -0.1646 0.5078 -0.7300 1.1809 1.4817 -0.9436 3.6939 -0.0220 0.0698 2.2034 -1.9068 2.5484 -1.0717
1.8696 -1.3013 4.9046 1.3678 -3.3190 -2.7353 -0.3639 0.6846 -3.5078 -2.5082 3.0738 0.4076 -3.0069 1.4117 -1.5466 0.7557 1.6644 1.5861 -1.7884 3.5473 -1.9171 0.5114 -2.3264 -3.2805 0.5062 -1.5839 -0.9648 -0.5271 1.7870 -0.6944 0.4476 -1.8801 1.6313 0.8350 -2.1782 2.8712 1.1516 0.2159 3.2775 -0.0935 0.0423 -2.3628 0.3046 -1.2663 -2.2751 -0.1860 0.5404 -1.0538 0.2168 -0.4723 -0.2017 0.4071 -0.5892 1.1691 1.2914 -1.0184 3.6818 0.7588 0.4992 1.9782 -1.9494 2.4683 -0.9675
2.5954 -0.7633 4.6908 1.6623 -2.5202 -3.3463 -0.6263 0.4769 -3.3649 -2.7844 1.8611 -2.0730 -1.0569 3.8121 -1.8603 -0.6655 1.1387 2.0565 -2.5059 3.1387 0.0305 0.2586 -2.5312 -3.1271 0.1712 -1.8217 -0.8312 -0.6269 1.6110 -0.5285 1.1951 -1.8474 1.5492 1.8451 -1.9704 2.7051 0.8885 0.1743 3.3921 -0.3987 -0.1722 -2.2142 -0.0212 -1.4842 -2.1338 -0.4163 0.3381 -0.9009 -0.0137 -0.6905 -0.0597 0.3711 -0.7836 1.2772 1.7456 -0.7896 3.6011 0.1428 0.2259 2.2218 -1.7600 2.5975 -1.0843
2.6873 -0.9940 4.6839 0.7937 -3.3058 -2.7433 -1.1256 0.2592 -3.2680 -2.8401 2.2547 -1.7611 -0.6923 3.3390 -2.8047 -1.2036 -1.3471 2.2391 -1.5819 4.0512 -0.6040 -0.5123 -2.7622 -2.6302 0.0619 -1.6608 -0.5670 -0.4702 1.8342 -0.6688 1.9029 0.1030 1.3182 2.6155 -0.0109 2.4403 0.6672 -1.0606 3.5096 -0.6805 -0.2043 -2.0919 -0.4037 -1.5256 -1.8409 -0.3881 0.5149 -0.9161 0.0880 -0.4109 -0.0103 0.6047 -0.3165 1.2618 1.9287 -0.7180 3.5612 -0.0503 -0.9241 2.3320 -1.4013 2.8847 -1.4398
2.1040 -0.9286 4.8980 1.7216 -3.0905 -2.8580 -1.0296 0.3265 -3.4066 -0.7691 2.9950 -2.1129 -1.8130 3.5624 0.2085 -0.7166 1.1373 1.9314 -3.1714 2.5945 -1.6193 1.1942 -1.8861 -3.3956 0.9081 -1.3918 -1.0335 -1.5916 1.0496 -0.4936 1.2350 -1.8046 1.4996 1.7474 -1.9780 2.7180 0.5667 0.0414 3.4283 -0.4447 -0.1681 -2.3057 0.5232 -1.1379 -2.3153 -0.6806 0.1789 -0.9605 0.1648 -0.5981 -0.1809 0.4258 -0.7415 1.1833 1.4384 -0.8954 3.6873 0.0416 0.1966 2.1529 -1.8540 2.5383 -1.0253
1.8596 -1.5649 4.8751 0.1850 -3.4836 -2.7416 -0.7866 0.3921 -3.3759 -1.4920 3.1294 -2.6294 -2.1320 3.8577 -0.2150 -1.3626 -0.1568 1.9173 -3.0639 1.7919 -1.2270 0.8439 -2.2821 -3.1067 0.8698 -1.4237 -0.8581 -0.6473 1.7493 -0.5619 2.1486 -0.4756 1.4435 2.5714 -0.7738 2.6725 0.2452 -0.6538 3.4498 -0.2411 -0.0613 -2.2392 0.4464 -1.2466 -2.1402 -0.2007 0.5505 -0.9716 0.4813 -0.3199 -0.1486 0.8202 -0.2841 1.1841 1.4881 -0.9935 3.6733 -0.1708 -0.3446 2.1649 -1.8624 2.5936 -1.1653
1.5875 -1.0821 5.0717 -0.2072 -3.3764 -3.1218 -0.3429 0.5747 -3.5728 -2.6733 2.0352 0.5239 -2.7442 1.7377 -2.0756 0.3859 1.7132 1.6343 -1.8399 3.7886 -1.0173 0.7729 -2.3621 -3.2775 0.7360 -1.5680 -1.0036 -0.4259 1.7677 -0.7999 1.0211 -1.7858 1.5638 1.3562 -2.0295 2.8306 0.9183 0.3248 3.3297 -0.0214 -0.0241 -2.4170 0.4595 -1.3001 -2.3092 -0.0710 0.5133 -1.1177 0.4222 -0.4504 -0.2493 0.6677 -0.5345 1.1223 1.2732 -0.8610 3.7441 0.6395 0.5653 1.9923 -1.9141 2.3535 -0.8509
2.2553 -0.6749 4.8369 1.3225 -3.1840 -3.0907 -0.4772 0.5572 -3.4786 -2.8060 1.7148 -1.7566 -1.4127 3.9115 -1.5669 -0.8634 1.0009 1.9051 -2.3451 2.7891 0.4317 0.0680 -2.5368 -3.2436 0.2091 -1.7875 -0.9355 -0.3782 1.6952 -0.6639 1.5155 -1.5953 1.4100 2.0859 -1.6773 2.6120 0.6871 0.1978 3.3404 -0.2519 -0.1068 -2.3353 -0.0028 -1.4529 -2.2457 -0.2054 0.4137 -1.0305 0.1424 -0.6274 -0.1888 0.5155 -0.6971 1.1462 1.6324 -0.6640 3.6027 0.0553 0.2097 2.1078 -1.7463 2.5140 -0.8567
1.4448 -1.2356 5.0443 1.9068 -2.6485 -3.3562 -0.2980 0.5777 -3.5737 -1.8859 3.8435 -0.1447 -2.9724 1.4704 -0.0878 0.9028 1.6349 1.5115 -2.3228 2.5707 -2.2258 0.5068 -2.4558 -3.2312 0.4950 -1.6432 -0.9648 -0.4494 1.7624 -0.7794 0.3660 -1.8774 1.6448 0.7078 -2.1578 2.9024 0.9836 0.2435 3.2938 -0.0671 -0.0392 -2.4065 0.3014 -1.3523 -2.2806 -0.1480 0.4955 -1.1079 0.2318 -0.5055 -0.2287 0.3946 -0.5981 1.1494 1.0530 -0.9808 3.7435 0.7643 0.4931 1.9470 -1.9149 2.4029 -0.8493
2.3255 -0.7697 4.7914 -0.8726 -3.2615 -2.8646 -0.0004 0.4157 -3.5460 -1.1811 4.2996 -1.0754 -2.6766 2.3139 -0.2644 -0.7576 -2.2785 1.7347 -1.8839 2.4911 -2.6148 0.3933 -2.6212 -2.8550 0.3446 -1.5927 -0.6804 -0.1581 1.9056 -0.8810 1.2073 0.6884 1.6919 1.7423 0.6823 2.9128 0.6216 -1.4541 3.3425 0.0694 -0.0901 -2.3074 0.2509 -1.4174 -2.0267 -0.0197 0.5838 -1.0785 0.1780 -0.3642 -0.0903 0.3567 -0.3004 1.2800 1.5274 -0.5747 3.6808 0.0148 -1.3893 2.0973 -1.4818 2.7336 -1.2468
2.0241 -0.1285 4.9339 0.6070 -3.5098 -2.8341 -0.6011 0.2746 -3.5595 -1.2897 3.7436 0.1750 -2.6012 2.1259 -1.4040 -0.1865 -2.5821 1.7303 -0.8958 3.7122 -2.2721 -0.6204 -2.7965 -2.8160 -0.1098 -1.7376 -0.7116 -0.0074 1.7839 -0.9826 1.0625 0.7453 1.5519 1.5506 0.9249 2.7790 0.8716 -1.3671 3.3223 -0.4003 -0.2339 -2.3357 -0.3980 -1.5707 -2.0339 -0.1392 0.4570 -1.1420 0.0682 -0.4934 -0.1549 0.4567 -0.4225 1.1767 1.4575 -0.2563 3.6798 0.3437 -1.5170 2.0486 -1.1924 2.8480 -1.1513
2.0484 -0.7835 5.0912 -0.5471 -3.0189 -3.4109 -0.7098 0.3882 -3.3255 -0.7322 3.3231 -2.5046 -2.1103 3.8604 -0.3584 -1.1917 -1.6039 1.9104 -2.7644 2.0184 -1.8807 0.6761 -2.4205 -3.0123 0.7252 -1.5593 -0.7644 -0.7221 1.6543 -0.4738 1.8953 0.1295 1.5811 2.3767 0.0831 2.8251 0.3614 -1.1453 3.5122 -0.2493 -0.1167 -2.1720 0.3470 -1.3494 -2.0585 -0.2601 0.4609 -0.8879 0.3630 -0.4459 -0.0560 0.6827 -0.4230 1.2809 1.5337 -0.6501 3.8147 -0.1158 -1.0843 2.2125 -1.6067 2.6830 -1.3232
2.0630 -0.4745 4.9749 -0.7065 -2.8989 -3.8056 -0.4246 0.3207 -3.5568 -2.8565 1.3233 -0.7558 -1.8675 3.3819 -2.0292 -0.9726 0.8656 1.7879 -1.7472 3.1995 0.4317 0.5057 -2.6733 -3.1048 0.5673 -1.7491 -0.8882 -0.2330 1.6998 -0.8472 1.7693 -1.3705 1.4824 2.1627 -1.4910 2.7508 0.5207 0.2229 3.3639 -0.0913 -0.2237 -2.3783 0.2906 -1.5294 -2.2042 -0.0210 0.4012 -1.1212 0.4038 -0.5580 -0.2178 0.7425 -0.5351 1.1258 1.5316 -0.5336 3.7006 0.0356 0.2183 2.0659 -1.6727 2.4039 -0.7746
2.3971 -0.8748 4.9182 0.7069 -2.2924 -3.9458 -0.9639 0.1646 -3.2439 -0.3681 3.0877 -2.6601 -1.7509 4.1099 -0.6981 -1.0248 -2.0095 2.0594 -2.6733 2.2993 -2.1149 0.2206 -2.7132 -2.6813 0.4072 -1.6314 -0.5472 -0.8664 1.6644 -0.5062 1.5164 0.4462 1.6672 2.1235 0.4133 2.8542 0.5571 -1.3452 3.5567 -0.5085 -0.2632 -2.0576 0.0201 -1.5145 -1.8490 -0.4674 0.4210 -0.8260 0.1069 -0.4503 0.0753 0.4404 -0.3529 1.4068 1.6433 -0.6523 3.7818 -0.0734 -1.2720 2.3253 -1.4429 2.7650 -1.5148
1.5431 -1.3203 5.0778 0.1552 -2.5934 -3.9156 0.0204 0.7931 -3.4681 -2.0379 3.7264 -1.4364 -2.9389 2.1053 0.3914 0.4046 1.6344 1.7695 -2.6791 1.3927 -1.9731 1.2914 -2.1067 -3.2182 0.9040 -1.4821 -0.9357 -0.5578 1.7292 -0.6505 0.6500 -1.9124 1.6230 0.9188 -2.2245 2.8907 0.8234 0.1622 3.4276 0.2546 0.1309 -2.3266 0.8026 -1.1217 -2.2425 -0.0265 0.5511 -1.0158 0.4117 -0.4491 -0.1649 0.4764 -0.6156 1.2120 1.0940 -1.0601 3.7977 0.5505 0.4604 2.1032 -2.0604 2.2001 -0.9457
2.3044 -1.0700 4.9553 0.0581 -2.6769 -3.8777 -0.5803 0.5252 -3.3124 -2.8659 1.8561 -2.3670 -0.9012 3.4804 -1.7303 0.0816 1.5007 1.8826 -2.8644 3.1392 -0.2560 1.1431 -2.0945 -3.1698 0.8479 -1.5292 -0.8526 -1.2571 1.2644 -0.3616 0.9217 -1.9549 1.7287 1.4557 -2.1595 2.9333 1.0047 0.1830 3.4689 -0.1980 -0.0757 -2.1770 0.5660 -1.2121 -2.1437 -0.4793 0.2783 -0.8401 0.2311 -0.6030 -0.0364 0.4563 -0.7251 1.3345 1.5755 -0.9476 3.7868 0.4815 0.3813 2.1994 -1.9815 2.4400 -1.1648
1.4133 -1.5713 5.0204 0.2054 -2.9026 -3.5331 0.0168 0.7663 -3.4589 -2.3988 3.6770 -0.3243 -3.2103 1.2144 -0.6365 1.7111 1.3770 1.5018 -2.1551 2.4990 -2.4891 1.2935 -2.0973 -3.1070 0.8514 -1.4301 -0.8376 -0.6387 1.7724 -0.6331 -0.1917 -1.6152 1.7723 0.0446 -1.9828 3.0329 1.4411 0.0176 3.3055 0.1924 0.1342 -2.2903 0.7550 -1.1102 -2.1596 -0.1189 0.5880 -0.9963 0.3153 -0.3877 -0.1235 0.3660 -0.4808 1.2510 1.0060 -1.1207 3.7790 1.1976 0.3677 1.9866 -2.0957 2.2850 -1.0602
1.6487 -1.4647 5.0623 0.2781 -2.4300 -3.9653 -0.0250 0.8524 -3.3901 -1.9588 3.2451 -2.2338 -2.9437 2.8249 0.1470 0.5926 1.6275 1.8356 -2.9210 1.0430 -1.5836 1.3751 -1.9804 -3.1846 0.9655 -1.4127 -0.8861 -0.7169 1.6752 -0.5463 0.5065 -1.9262 1.6636 0.8137 -2.2725 2.9132 0.9448 0.1070 3.4783 0.2274 0.1836 -2.2563 0.8391 -1.0402 -2.1898 -0.0961 0.5545 -0.9410 0.3937 -0.4305 -0.1044 0.4382 -0.6151 1.2703 1.1399 -1.1391 3.8193 0.6482 0.4429 2.1652 -2.1502 2.1553 -1.0735
1.5470 -1.3403 5.0505 0.5231 -3.1912 -3.2212 -0.2242 0.8097 -3.4980 -2.2558 2.8673 -2.3672 -2.5023 3.3573 0.1815 0.1794 1.6031 1.8019 -3.0558 1.1307 -0.7693 1.2473 -1.9772 -3.3425 0.9298 -1.4059 -1.0279 -0.6290 1.7443 -0.6413 0.9601 -1.8556 1.5163 1.2779 -2.1741 2.7701 0.7647 0.1314 3.4114 0.0920 0.1586 -2.3703 0.7245 -1.0540 -2.3246 -0.1105 0.5726 -1.0413 0.4225 -0.4080 -0.2189 0.5743 -0.5896 1.1530 1.1804 -1.0600 3.7477 0.4845 0.4476 2.0903 -2.1300 2.2333 -0.9002
1.9511 -1.6850 4.8857 0.9007 -2.1297 -4.0518 -0.0728 0.7642 -3.2732 -1.4933 3.2635 -2.3237 -3.1378 3.1324 -0.3081 1.1823 1.4445 1.6280 -3.0522 1.3418 -2.0244 1.6717 -1.8301 -2.9004 0.8481 -1.4321 -0.6836 -1.1082 1.4970 -0.4374 -0.0805 -1.8671 1.9063 0.3301 -2.2155 3.1282 1.3596 -0.0055 3.3675 0.0771 0.0989 -2.1185 0.8310 -1.0407 -1.9873 -0.4085 0.4229 -0.8378 0.1104 -0.5214 0.0254 0.1648 -0.6167 1.4036 1.2390 -1.2363 3.7892 0.9027 0.3453 2.1077 -2.2153 2.2696 -1.2954
2.0250 -1.3087 4.9180 -0.0412 -3.0060 -3.3641 -0.1252 0.7844 -3.4365 -2.8864 1.1425 -1.9564 -2.0305 3.6079 -1.8082 0.6934 1.6999 1.7274 -2.9238 2.4190 0.1723 1.0772 -2.1472 -3.1854 0.8391 -1.4542 -0.8968 -0.6705 1.7295 -0.6085 0.5035 -1.8544 1.6891 0.8999 -2.1678 2.9229 1.1527 0.2242 3.3833 0.1416 0.1354 -2.2944 0.6722 -1.1251 -2.2084 -0.1130 0.5675 -0.9808 0.3549 -0.4157 -0.1280 0.4510 -0.5555 1.2508 1.3678 -1.0147 3.7385 0.7524 0.5256 2.0906 -2.1399 2.2134 -1.0251
1.6200 -0.5138 5.1493 1.4276 -2.7883 -3.0562 -0.8361 0.4545 -3.3149 -2.1535 3.8375 -0.1558 -2.8642 2.1263 -1.9887 2.4853 -1.3364 0.7028 -0.7681 3.4606 -2.1766 0.0290 -2.5456 -3.0092 0.0861 -1.7573 -0.7375 -0.7482 1.6648 -0.4560 -0.5308 -0.2329 2.2335 -0.1850 -0.1902 3.5228 2.0643 -0.9706 2.9052 -0.5508 -0.1466 -2.1520 -0.1803 -1.4619 -2.0405 -0.5113 0.4060 -0.8600 -0.0570 -0.5966 -0.0259 0.3738 -0.6088 1.2825 1.2245 -0.5800 3.8269 1.6859 -0.9928 1.5749 -1.6113 2.7719 -1.2245
1.9164 -1.4602 4.8478 1.7777 -2.9202 -2.8747 -0.5030 0.5386 -3.4782 -3.1485 1.3149 -1.4373 -1.9040 3.4859 -2.2026 1.6277 1.4535 1.2925 -2.5570 3.1224 0.1620 0.4435 -2.4661 -3.0463 0.4606 -1.5647 -0.8177 -0.6515 1.7792 -0.6759 -0.1061 -1.5982 1.8498 0.3030 -1.9360 3.0730 1.6450 0.1157 3.1353 -0.1981 -0.0305 -2.3023 0.2335 -1.3248 -2.1401 -0.2818 0.5366 -1.0168 0.1445 -0.4245 -0.1261 0.3306 -0.4525 1.2418 1.3254 -1.0333 3.6725 1.2176 0.4366 1.8546 -2.0757 2.4276 -1.0112
2.4612 -0.5858 4.8340 -0.5955 -2.8201 -3.6671 -0.1745 0.3447 -3.4157 -1.2323 2.9397 -2.9290 -1.4732 4.1634 -0.6475 -0.5866 -2.4255 1.9189 -2.8277 2.1477 -1.1831 0.4773 -2.6688 -2.7506 0.2934 -1.6707 -0.5725 -0.3904 1.7986 -0.7109 1.1019 0.6972 1.7463 1.6954 0.7612 2.9383 0.7817 -1.4527 3.4541 -0.0995 -0.1745 -2.1828 0.1866 -1.4904 -1.9195 -0.2188 0.4851 -0.9457 0.0636 -0.4575 0.0293 0.3194 -0.3673 1.3887 1.6173 -0.4894 3.7434 0.1172 -1.4646 2.2362 -1.5166 2.7298 -1.3649
1.5433 -0.2603 5.2542 -1.3469 -2.7007 -3.3281 -0.1651 0.5300 -3.4158 -2.4342 3.2937 -0.1568 -2.4714 1.7143 -2.2236 2.0900 -2.2280 1.1354 -0.9611 3.6810 -2.1140 0.0187 -2.5696 -2.9580 0.2700 -1.6951 -0.7236 -0.3304 1.7880 -0.6334 -0.1107 0.4029 2.0876 0.1746 0.5391 3.3845 1.7669 -1.3161 3.1843 -0.0147 -0.0674 -2.2249 0.0920 -1.4200 -2.0464 -0.0561 0.5092 -0.9443 0.2454 -0.4986 -0.0433 0.5228 -0.5302 1.3144 1.2034 -0.3966 3.9214 1.4922 -1.4046 1.8306 -1.5288 2.6289 -1.3004
1.5572 -0.0361 5.0594 -0.3781 -3.8028 -2.2998 -0.4660 0.4453 -3.5511 -2.4740 2.5691 0.1725 -2.2063 2.3770 -2.4193 1.9162 -2.3027 1.0682 -1.0326 4.1218 -1.1149 -0.1563 -2.6280 -3.0635 0.1384 -1.7034 -0.8284 -0.1543 1.8217 -0.8383 -0.0624 0.5446 1.8713 0.2384 0.7401 3.1545 1.7055 -1.2251 3.0527 -0.2485 -0.1213 -2.3562 -0.1153 -1.4706 -2.1507 -0.1020 0.5064 -1.1099 0.1830 -0.4887 -0.1933 0.5008 -0.4708 1.1517 1.2071 -0.2295 3.7366 1.4021 -1.3861 1.7102 -1.4528 2.7393 -1.0516
1.4706 -0.1636 5.2359 -0.3860 -2.7005 -3.9701 -0.9949 0.1597 -3.3122 -2.4536 3.5826 -0.1638 -2.3293 2.4941 -2.5155 2.5419 -1.5714 0.9956 -0.2989 3.3822 -1.3702 0.6752 -2.4982 -3.0483 0.5941 -1.6912 -0.7828 -1.2832 1.2769 -0.4197 -0.4369 -0.0019 2.1474 -0.1672 0.1833 3.4418 1.9985 -0.9216 3.0931 -0.4838 -0.3133 -2.1677 0.2357 -1.4790 -2.0802 -0.5909 0.2140 -0.8666 0.1237 -0.6370 -0.0385 0.4600 -0.6047 1.3074 1.1568 -0.3322 3.8995 1.7102 -1.0620 1.7473 -1.5420 2.6835 -1.1325
1.8998 0.1882 4.8913 0.2129 -3.7884 -2.5338 -0.5282 0.2762 -3.6388 -2.5360 1.8550 -0.4635 -1.6026 3.3807 -2.3699 1.0758 -2.6172 1.3432 -1.0271 3.7663 0.0141 -0.7182 -2.7712 -2.8662 -0.1334 -1.7173 -0.7599 0.0370 1.7960 -1.0718 0.3131 0.8423 1.6976 0.7184 1.0868 2.9443 1.3930 -1.2618 3.1294 -0.3054 -0.2310 -2.4178 -0.3751 -1.5620 -2.0960 -0.0337 0.4639 -1.2296 0.1165 -0.4753 -0.2234 0.4418 -0.3949 1.1258 1.3540 -0.0624 3.6460 0.9706 -1.4899 1.8284 -1.2731 2.7160 -0.9493
0.6901 -0.4475 5.2010 1.0423 -3.4114 -2.9274 -0.5398 0.4818 -3.5584 -1.3561 4.1986 -0.7926 -2.5829 2.1118 0.1777 2.2957 -1.9403 1.1398 -2.1944 2.3917 -2.2588 -0.0911 -2.5743 -3.0803 0.3952 -1.6255 -0.8918 -0.1679 1.8715 -0.8621 -0.2882 0.4040 1.8213 -0.2594 0.4793 3.1512 1.5225 -1.2059 3.1481 -0.1436 -0.0605 -2.3978 0.0727 -1.4009 -2.2030 0.0252 0.5723 -1.1556 0.3755 -0.4109 -0.2460 0.5743 -0.3956 1.1251 0.7017 -0.4400 3.8183 1.5124 -1.2192 1.7592 -1.5843 2.6211 -0.9680
1.2512 -0.0323 5.2637 -0.7784 -2.5594 -3.8205 -0.1732 0.5373 -3.4356 -1.3107 3.0953 -2.6126 -1.8992 3.7555 -0.1685 1.7677 -2.4734 1.3929 -2.7565 1.6580 -1.1827 0.4446 -2.5155 -3.0968 0.5084 -1.7117 -0.8077 -0.3043 1.7274 -0.6218 -0.0749 0.5153 1.9416 0.1046 0.7275 3.2442 1.4262 -1.3337 3.3264 0.0547 -0.0749 -2.2658 0.3293 -1.4104 -2.1312 -0.0006 0.4657 -0.9762 0.3243 -0.5476 -0.0909 0.4714 -0.5592 1.2916 0.9630 -0.2724 3.9327 1.2481 -1.5126 1.9609 -1.5958 2.5210 -1.1441
1.0378 -1.0716 5.1771 1.0009 -3.4823 -2.4197 -0.6082 0.5245 -3.4715 -2.2501 2.4411 -2.7038 -1.8203 4.1680 -0.8268 2.6883 -1.2661 0.8826 -3.1140 2.0952 -0.4054 0.5084 -2.3476 -3.1148 0.5398 -1.4802 -0.8316 -0.6324 1.8500 -0.6791 -0.3874 0.0911 2.0514 -0.2605 -0.0486 3.3722 1.9299 -1.0928 3.0153 -0.2585 0.0016 -2.2898 0.2352 -1.2681 -2.1441 -0.2668 0.6023 -1.0160 0.2792 -0.3215 -0.1427 0.6000 -0.3193 1.2027 0.9602 -0.7691 3.8298 1.7917 -0.9080 1.6491 -1.9731 2.6014 -1.1351
1.2700 -0.4805 5.2195 -0.6688 -3.4445 -2.6951 -0.4856 0.4738 -3.4983 -2.8481 1.5706 -1.7227 -1.5022 3.7660 -2.1563 2.5092 -1.7152 0.9616 -2.3190 3.1647 0.1025 0.3631 -2.5249 -3.0192 0.4842 -1.5777 -0.8083 -0.3849 1.8525 -0.7617 -0.2249 0.3107 2.0034 -0.0585 0.3321 3.3283 1.8860 -1.1422 3.0669 -0.1486 -0.0577 -2.3149 0.2073 -1.3677 -2.1256 -0.1018 0.5716 -1.0569 0.3375 -0.3796 -0.1538 0.6457 -0.3623 1.1944 1.0835 -0.4710 3.8501 1.7271 -1.1043 1.6913 -1.7712 2.5856 -1.1050
1.8634 0.3332 4.6506 1.1196 -3.7418 -2.4005 -0.8384 -0.1201 -3.8285 -1.8334 4.0043 -1.3599 0.3215 3.2980 -0.1083 0.5561 -2.6355 1.3969 -1.9652 2.5838 0.6482 0.0502 -3.0037 -2.9703 0.1592 -1.7534 -0.8981 -1.1175 1.5268 -1.4405 0.2705 0.9021 1.4635 0.6855 1.1941 2.6952 1.1233 -1.1859 3.0337 -0.5012 -0.4834 -2.5820 -0.0934 -1.7379 -2.2299 -0.5766 0.2986 -1.4051 -0.1006 -0.5050 -0.3681 0.1855 -0.3703 0.9911 1.2319 0.0443 3.4566 0.6088 -1.4653 1.7765 -1.1493 2.8172 -0.5211
1.1051 -0.7518 5.1810 0.0979 -3.2650 -3.3343 -1.2272 -0.0191 -3.3614 -3.0994 2.7024 -1.7900 -0.5125 3.0971 -1.6856 2.8588 -0.4173 0.9271 -1.9571 3.3051 0.3270 1.0401 -2.2084 -3.2126 0.9897 -1.3490 -0.9604 -1.6006 1.0005 -0.5022 -0.5379 -0.3995 1.9781 -0.4206 -0.3982 3.3058 2.0149 -0.5505 3.0353 -0.5006 -0.3145 -2.2745 0.4879 -1.2654 -2.2287 -0.6459 0.1849 -0.9729 0.2945 -0.4519 -0.1880 0.5618 -0.4161 1.1663 0.9675 -0.5703 3.8178 1.8686 -0.4519 1.6596 -1.7848 2.5392 -0.8875
0.9390 -0.1877 4.9352 1.3961 -3.4857 -2.7025 -1.3049 -0.2054 -3.6657 -2.5640 3.4573 -0.9767 -0.0553 2.9347 -0.4574 2.6306 -0.1577 0.6468 -1.8786 2.3740 1.1398 1.0253 -2.3002 -3.3894 0.8355 -1.4096 -1.1390 -1.7759 0.9726 -0.9085 -0.7298 -0.5692 1.7381 -0.6041 -0.5031 3.0639 1.8161 -0.1877 2.7698 -0.6232 -0.4574 -2.5392 0.3825 -1.3859 -2.4277 -0.8117 0.1104 -1.2697 0.0955 -0.5018 -0.4284 0.3508 -0.3981 0.9203 0.7830 -0.2825 3.5653 1.6550 -0.2402 1.3954 -1.5621 2.4232 -0.2705

>  <OB_ATOM_TYPES> (1robA1)
N.pl3 O.3 O.3 O.3 O.3 O.2 O.2 C.3 O.3 O.3 C.ar C.ar N.ar C.3 C.3 C.3 C.3 N.ar C.ar C.ar P.3

>  <ENSEMBLE_RMSD> (1robA1)
0.000 0.984 1.064 1.093 1.134 1.157 1.196 1.199 1.220 1.325 1.326 1.340 1.344 1.352 1.354 1.360 1.397 1.414 1.428 1.444 1.453 1.461 1.502 1.503 1.525 1.528 1.534 1.598 1.629 1.632 1.634 1.757 1.784 1.796 1.820 1.845 1.975 1.976 1.998 2.004 2.034 2.163

$$$$
