
 OpenBabel03071213D

 35 36  0  0  0  0  0  0  0  0999 V2000
  -20.8810   92.7570   80.0450 C   0  0  0  0  0
  -20.6810   99.6840   77.6540 N   0  0  0  0  0
  -20.9680   92.0520   83.6000 O   0  0  0  0  0
  -22.4510   98.5220   76.7260 N   0  0  0  0  0
  -22.5710   92.6880   82.2780 O   0  0  0  0  0
  -17.0520   92.3480   79.9240 O   0  0  0  0  0
  -15.1850   95.8800   80.9810 O   0  0  0  0  0
  -18.7080   96.0660   78.2300 C   0  0  0  0  0
  -19.1180   97.3930   77.7240 C   0  0  0  0  0
  -17.3250   96.2500   78.7240 C   0  0  0  0  0
  -17.6010   92.4470   83.0160 C   0  0  0  0  0
  -16.6970   93.5990   83.4310 C   0  0  0  0  0
  -20.4800   97.4260   77.2320 N   0  0  0  0  0
  -19.2180   91.5520   81.4010 N   0  0  0  0  0
  -17.5090   94.4990   80.4140 N   0  0  0  0  0
  -14.3380   95.4060   78.9360 N   0  0  0  0  0
  -14.5200   93.2530   87.1000 C   0  0  0  0  0
  -10.2570   96.1960   79.2290 C   0  0  0  0  0
  -15.4040   94.2980   86.9130 C   0  0  0  0  0
  -14.3430   92.3040   86.0990 C   0  0  0  0  0
  -10.7660   95.4940   78.1530 C   0  0  0  0  0
  -11.1100   96.6600   80.2160 C   0  0  0  0  0
  -16.1080   94.3990   85.7320 C   0  0  0  0  0
  -15.0570   92.4120   84.9130 C   0  0  0  0  0
  -12.1430   95.2530   78.0650 C   0  0  0  0  0
  -12.4840   96.4150   80.1230 C   0  0  0  0  0
  -20.6740   91.7610   81.2030 C   0  0  0  0  0
  -18.4830   92.7610   81.7960 C   0  0  0  0  0
  -16.6880   95.0260   79.3340 C   0  0  0  0  0
  -21.2060   98.5430   77.2000 C   0  0  0  0  0
  -21.4490   92.1930   82.4460 C   0  0  0  0  0
  -17.6120   93.1920   80.6250 C   0  0  0  0  0
  -15.3180   95.4410   79.8410 C   0  0  0  0  0
  -15.9460   93.4590   84.7170 C   0  0  0  0  0
  -13.0100   95.7090   79.0520 C   0  0  0  0  0
  1 27  1  0  0  0
  2 30  1  0  0  0
  3 31  1  0  0  0
  4 30  2  0  0  0
  5 31  2  0  0  0
  6 32  2  0  0  0
  7 33  2  0  0  0
  8  9  1  0  0  0
  8 10  1  0  0  0
  9 13  1  0  0  0
 10 29  1  0  0  0
 11 12  1  0  0  0
 11 28  1  0  0  0
 12 34  1  0  0  0
 13 30  1  0  0  0
 14 27  1  0  0  0
 14 28  1  0  0  0
 15 29  1  0  0  0
 15 32  1  0  0  0
 16 33  1  0  0  0
 16 35  1  0  0  0
 17 19  1  0  0  0
 17 20  2  0  0  0
 18 21  2  0  0  0
 18 22  1  0  0  0
 19 23  2  0  0  0
 20 24  1  0  0  0
 21 25  1  0  0  0
 22 26  2  0  0  0
 23 34  1  0  0  0
 24 34  2  0  0  0
 25 35  2  0  0  0
 26 35  1  0  0  0
 27 31  1  0  0  0
 28 32  1  0  0  0
 29 33  1  0  0  0
M  END
>  <MOLID> (1slnA1)
1slnA1

>  <SMILES_CANONICAL> (1slnA1)
NC(=N)NCCC[C@@H](C(=O)Nc1ccccc1)NC(=O)[C@@H](N[C@@H](C(=O)O)C)CCc1ccccc1	

>  <FINGERPRINT> (1slnA1)
0000000000000001010000000000001000000001000000000011001000000000000000000001000000000001001000100000010000000001000011100000000000100000000000000000000010000000000000000000000000100000000000000000000000000000000000000000000000100000000000000010000000001000000000000011000000001010000000000000000000001000000010101100001000001000001110000010000000000100010000000000001110110000000000000000011000000000100100000001001000000000001100000010000000000011100000000001101000000000010000000000000000011100000000000000100000010000000001000000000000000000000000100000000000000000000000000000100000000000000000000000000000000000000000000000001000000001010000000001000000000001000000000011100000000101000011100010000000100011000000000010000000000011000000100101000000000000000110100000000000000000000000000000000010000000000000000000000000000000010000000000000000000000000000000001000000000000000000001000000000001000000000001000000000010000000000000000011000000000000010111010000000001000010000000000000000000000010000000010011000000000

>  <MACCS166> (1slnA1)
000000000000000000000000100000000000000000101000010001000000000000000000000111100001000001110010001000010101011000001110001010000010101101111100111010101111111110111000

>  <OB_MW> (1slnA1)
482.264

>  <OB_logP> (1slnA1)
3.483

>  <OB_PSA> (1slnA1)
169.43

>  <OB_MR> (1slnA1)
134.794

>  <OB_ATOMIC_CHARGES> (1slnA1)
0.0309531662 0.1354054781 -0.2441107505 0.1354054781 -0.2441107505 -0.2718275234 -0.2711281382 0.0491995772 0.2204834022 0.034807597 0.0314406701 0.0282936234 -0.0865358157 -0.2004064961 -0.1966000589 -0.1777724678 -2.00236e-05 8.49794e-05 -0.0003225279 -0.0003225279 0.0013346969 0.0013346969 -0.0042658499 -0.0042658499 0.0165977347 0.0165977347 0.1761709001 0.1512429526 0.1732144478 0.5345695009 0.3802646573 0.2575959369 0.265401969 -0.0221281732 0.0734177538

>  <MCT_HBD> (1slnA1)
7

>  <MCT_HBA> (1slnA1)
10

>  <ENSEMBLE_TOTAL> (1slnA1)
49

>  <ENSEMBLE_COORDS> (1slnA1)
-3.9278 -1.9098 -0.8999 -3.7278 5.0172 -3.2909 -4.0148 -2.6148 2.6551 -5.4978 3.8552 -4.2189 -5.6178 -1.9788 1.3331 -0.0988 -2.3188 -1.0209 1.7682 1.2132 0.0361 -1.7548 1.3992 -2.7149 -2.1648 2.7262 -3.2209 -0.3718 1.5832 -2.2209 -0.6478 -2.2198 2.0711 0.2562 -1.0678 2.4861 -3.5268 2.7592 -3.7129 -2.2648 -3.1148 0.4561 -0.5558 -0.1678 -0.5309 2.6152 0.7392 -2.0089 2.4332 -1.4138 6.1551 6.6962 1.5292 -1.7159 1.5492 -0.3688 5.9681 2.6102 -2.3628 5.1541 6.1872 0.8272 -2.7919 5.8432 1.9932 -0.7289 0.8452 -0.2678 4.7871 1.8962 -2.2548 3.9681 4.8102 0.5862 -2.8799 4.4692 1.7482 -0.8219 -3.7208 -2.9058 0.2581 -1.5298 -1.9058 0.8511 0.2652 0.3592 -1.6109 -4.2528 3.8762 -3.7449 -4.4958 -2.4738 1.5011 -0.6588 -1.4748 -0.3199 1.6352 0.7742 -1.1039 1.0072 -1.2078 3.7721 3.9432 1.0422 -1.8929
-4.4437 -3.2696 -0.0365 -4.7297 3.6262 -4.2064 -4.5743 -1.3780 2.3174 -3.8509 3.2643 -2.0553 -4.0409 -3.4035 3.1914 0.0109 -2.2971 -1.4380 2.3245 0.4750 -0.2812 -0.6291 2.2937 -3.2257 -1.2157 3.6855 -3.1720 -0.0924 1.9667 -1.8542 -0.7059 -1.3059 1.8954 0.3388 -2.1127 2.6385 -2.4479 3.7150 -3.9310 -2.6039 -1.7498 0.4530 -0.2883 -0.1326 -0.6855 2.6544 0.8074 -2.5699 0.5192 -1.2816 6.8466 6.6734 1.9055 -2.9261 -0.3683 -2.3018 6.3194 1.3061 -0.5810 6.0106 5.8601 1.9556 -3.9960 6.1411 1.5111 -1.6353 -0.4187 -2.5343 4.9951 1.2562 -0.8352 4.5791 4.4552 1.6078 -3.8598 4.8424 1.1856 -1.5125 -3.3501 -2.9050 0.9419 -1.1743 -1.9960 0.6288 0.4151 0.5449 -1.7665 -3.6758 3.5291 -3.3191 -3.9931 -2.6006 2.2680 -0.4408 -1.5037 -0.6125 1.8948 0.6149 -1.4225 0.4011 -1.7500 4.0835 3.9505 1.2497 -2.6627
-4.1572 -2.4098 -0.4848 -3.6966 4.9824 -5.5350 -4.3709 -3.7877 2.1646 -4.0629 5.2610 -3.2295 -3.4599 -5.3323 0.7692 -0.0370 -2.2236 -0.8584 2.0412 1.0368 -0.0469 -0.8122 2.4845 -2.7368 -1.9790 3.4341 -2.7155 -0.6131 2.0075 -1.3166 -0.6055 -1.2612 2.5178 0.6211 -1.9015 3.1344 -2.3240 3.8629 -4.0533 -2.5292 -1.9764 1.2364 -0.5019 -0.0863 -0.1095 2.1205 0.6885 -2.3592 1.2167 -1.1047 7.3092 6.0736 1.5186 -3.4170 1.5777 -0.1193 6.3059 0.6738 -2.2763 6.9335 5.1216 1.4558 -4.3651 5.7139 1.3531 -2.0214 1.3560 -0.3701 5.0022 0.4409 -2.5496 5.5252 3.7367 1.2174 -3.9914 4.4343 1.1228 -1.6801 -3.0421 -3.0063 0.3421 -1.0720 -2.0151 1.2871 0.0014 0.6280 -1.2730 -3.3942 4.7273 -4.2136 -3.6052 -4.1662 1.1126 -0.4965 -1.4627 -0.0067 1.4978 0.8139 -1.1243 0.7406 -1.6248 4.5941 3.3914 1.0791 -2.6961
-4.3270 -2.6314 0.0359 -2.5384 5.1960 -5.1615 -4.7733 -2.6084 3.0220 -3.1164 3.9879 -3.2291 -3.7144 -4.5716 2.6022 -0.0819 -2.1630 -0.2904 1.4131 1.6110 -0.0385 -0.6860 1.3491 -3.7847 -1.9973 1.6401 -4.4763 -0.8788 1.4584 -2.2893 -0.8884 -0.2872 2.5129 -0.8915 -0.6803 3.9756 -1.9534 2.9726 -5.0450 -2.8175 -1.3736 1.4576 -0.7894 0.0338 -0.3375 2.1798 0.9627 -2.1506 2.4142 -3.1287 5.1758 6.0582 2.4967 -2.3923 2.5694 -1.6894 5.0597 1.2234 -3.6989 4.9212 5.4170 2.1017 -3.5067 5.3822 2.4318 -1.1100 1.5272 -0.9253 4.6822 0.0991 -2.8759 4.5165 4.0530 1.6062 -3.4234 4.1241 1.9635 -1.0342 -3.2979 -2.7128 1.1387 -1.3625 -1.3847 1.5794 -0.0652 0.4246 -1.5401 -2.5737 4.0366 -4.4127 -3.9120 -3.3929 2.3317 -0.7055 -1.2299 0.2152 1.2443 1.0759 -1.1299 0.2514 -1.5482 4.3637 3.4140 1.5538 -2.2380
-4.1388 -2.5541 -0.9895 -4.7780 4.5756 -4.5318 -5.3389 -3.4671 1.6099 -2.7665 5.5871 -3.8572 -4.1658 -5.2511 0.8347 -0.1804 -2.3748 -0.2793 1.6649 1.0161 0.6320 -1.7459 1.7208 -2.2662 -1.9541 3.1392 -2.7261 -0.5664 1.7693 -1.3264 -1.4867 -1.0113 2.6883 -0.5330 -1.6276 3.6920 -3.2224 3.2961 -3.4018 -3.1191 -1.9057 1.1069 -0.7830 -0.1740 0.0880 2.3166 0.3830 -1.5219 3.4686 -0.0877 3.6767 6.4400 1.0568 -1.6173 3.0482 -1.1006 2.7267 2.5947 0.3876 4.5822 5.7551 0.8955 -2.7636 5.7355 1.0463 -0.3489 1.7791 -1.5449 2.7350 1.2228 -0.0966 4.5933 4.3138 0.7066 -2.7293 4.4039 0.8617 -0.3201 -3.4226 -3.0442 0.2472 -1.7134 -1.9284 1.5001 -0.0121 0.4055 -0.9964 -3.5412 4.5400 -3.9223 -4.3093 -4.0390 0.9408 -0.8370 -1.5306 0.3286 1.4052 0.6384 -0.5067 0.8174 -0.9988 3.6795 3.6489 0.7108 -1.5572
-4.6459 -2.1849 -0.2080 -1.2710 4.4083 -5.4003 -5.3091 -3.5390 2.4229 -3.5696 4.0858 -5.7688 -4.2213 -5.1017 1.1863 -0.5063 -2.3078 0.0351 1.4177 1.0693 0.8363 -1.0108 1.9287 -2.6058 -1.4435 3.3487 -2.8706 -1.0575 1.7150 -1.1150 -1.4395 -0.9111 3.1181 -0.4718 -1.5518 4.0939 -2.5705 3.3321 -3.7784 -3.2733 -1.7610 1.7497 -1.0177 -0.0970 0.4520 1.9113 0.7948 -1.4307 3.6650 -1.2736 2.9863 5.9109 1.9465 -1.7969 3.0095 -0.1695 3.6646 2.9799 -2.3995 2.7209 5.1353 1.8401 -2.8906 5.3427 1.7067 -0.4833 1.7107 -0.2617 4.0087 1.5819 -2.5014 3.0974 3.7333 1.4806 -2.7550 4.0480 1.3643 -0.3617 -3.7072 -2.7882 0.8104 -1.8292 -1.8286 1.9716 -0.3392 0.4529 -0.7075 -2.5166 3.9575 -5.0099 -4.4018 -3.9300 1.4971 -1.0762 -1.4500 0.7083 1.0824 0.8180 -0.3166 0.9556 -1.4615 3.6777 3.1939 1.2690 -1.5383
-4.4777 -1.6293 -0.4811 -5.3739 1.9612 -2.5217 -3.5453 -3.9646 1.3751 -3.5294 2.7169 -1.2743 -4.0452 -2.1182 2.6112 0.2433 -1.7403 -0.4733 2.2134 1.8514 -0.4900 -1.1176 1.4418 -3.5579 -1.9853 2.6689 -3.7106 0.0922 1.8369 -2.7510 -0.8780 0.3368 2.0789 -1.2652 0.0053 3.5066 -3.3760 2.2830 -3.6126 -2.6483 -0.5984 0.6634 -0.1930 0.5177 -0.7146 2.9688 0.6063 -2.3212 1.2493 -2.8066 5.5351 7.0776 1.3616 -2.4997 0.2218 -3.2452 4.6094 1.4353 -1.4937 5.7614 6.4654 0.7016 -3.4989 6.3010 1.8484 -1.3747 -0.5400 -2.3388 3.9737 0.6124 -0.5125 5.0714 5.0313 0.4718 -3.4461 4.9751 1.6290 -1.3256 -3.2245 -1.8969 0.3237 -1.2629 -0.7446 1.0873 0.6245 0.7051 -1.9017 -4.0544 2.3507 -2.4090 -3.6440 -2.6236 1.5736 -0.3476 -0.7203 -0.1194 2.0121 1.1301 -1.4625 -0.3156 -0.9179 4.1843 4.3002 0.9261 -2.4090
-4.9575 -1.6275 -0.2638 -4.0479 3.0294 -5.6110 -3.4642 -4.4436 0.4496 -4.2487 2.5903 -3.3101 -4.7585 -3.5332 2.0895 -0.4333 -1.8908 -0.0623 1.6743 1.4497 0.7479 -0.8950 2.2633 -2.7121 -1.5579 3.5927 -2.9873 -0.5825 2.2072 -1.2381 -1.5391 -0.3787 2.9149 -0.7426 -1.1024 3.9810 -2.2690 3.5333 -4.2455 -3.2825 -1.1183 1.3858 -0.8247 0.3606 0.2868 2.2519 0.7105 -1.3966 3.4333 -1.5971 3.1558 6.4151 1.0185 -1.5423 2.4449 -2.5107 2.6146 3.0456 -0.5678 3.9304 5.7158 0.7601 -2.6618 5.7179 1.2335 -0.2878 1.1424 -2.3271 2.8895 1.6333 -0.3575 4.2092 4.2652 0.6892 -2.6106 4.3759 1.1603 -0.2427 -3.6992 -2.1215 0.4128 -1.8780 -1.2802 1.7425 -0.0509 0.8533 -0.8345 -3.5574 3.0348 -4.3209 -4.0352 -3.4055 1.1135 -0.9917 -0.9817 0.5500 1.3786 1.0473 -0.3729 0.7130 -1.1838 3.6784 3.6089 0.8935 -1.4517
-4.7197 -2.6743 0.0492 -1.4754 4.2506 -6.5748 -5.2681 -3.0881 3.0886 -3.1544 4.1616 -4.9298 -4.5358 -5.0350 2.1836 -0.5252 -2.3402 0.0746 1.2980 1.1959 0.7817 -0.9598 1.7299 -2.8131 -1.2111 3.1907 -3.0908 -1.1804 1.5296 -1.3337 -1.4627 -0.8359 3.1002 -0.5215 -1.4403 4.1235 -0.9189 3.4876 -4.4748 -3.2978 -1.7224 1.7668 -1.0495 -0.1186 0.4031 1.8557 0.9287 -1.4702 3.5254 -1.9364 2.7932 5.7127 2.4978 -1.8132 3.0837 -0.6681 3.3455 2.6688 -2.9697 2.7150 4.9686 2.2878 -2.9137 5.1543 2.2247 -0.5019 1.8123 -0.5181 3.7632 1.3011 -2.8104 3.1721 3.6111 1.7830 -2.7876 3.9019 1.7483 -0.3889 -3.7893 -2.9742 1.2020 -1.8556 -1.7963 1.9919 -0.3683 0.3856 -0.7777 -1.9165 3.9812 -5.2956 -4.5354 -3.8090 2.2080 -1.1061 -1.4620 0.7117 1.0047 0.8991 -0.3722 0.8736 -1.6228 3.6375 3.0796 1.5395 -1.5734
-4.4433 -2.0677 -0.9852 -5.1180 2.6248 -1.0449 -4.0437 -3.2834 1.6704 -3.0253 2.6281 0.0266 -3.0473 -4.7803 0.2803 0.1855 -2.0302 -1.3200 2.4453 1.0745 -0.5102 -1.1758 2.2317 -2.9841 -1.8586 3.4801 -2.4764 0.1818 2.1470 -2.3351 -0.7793 -0.6395 1.8005 0.0374 -1.4107 2.8167 -3.2643 3.2019 -2.2755 -2.5621 -1.3234 0.3279 -0.1602 0.2108 -0.8738 2.8496 0.4854 -2.7375 -0.2001 0.0127 6.8595 6.9947 0.7874 -3.1777 0.8058 0.5265 5.9474 -1.0832 -0.9082 6.4341 6.2045 0.7015 -4.2629 6.4011 0.8227 -1.8542 0.8457 0.0944 4.6730 -1.0330 -1.3824 5.0611 4.7603 0.6399 -4.1077 5.0655 0.7555 -1.7137 -3.1193 -2.4715 -0.3760 -1.1388 -1.4929 0.5990 0.5881 0.7243 -2.0136 -3.7508 2.8160 -1.0390 -3.3646 -3.6287 0.5502 -0.3258 -1.1414 -0.6380 2.0565 0.7882 -1.6388 -0.1273 -0.8806 4.2007 4.1991 0.6875 -2.8831
-4.5295 -4.6765 0.0950 -0.4499 5.6403 -4.9803 -5.3009 -3.0213 2.4837 -0.1538 5.1487 -2.7010 -4.3587 -4.9042 3.3348 -0.4307 -2.8337 -0.9328 1.2496 0.5193 0.3852 -1.2355 1.7753 -2.9056 -2.0848 3.0199 -3.0142 -1.2863 1.2973 -1.4748 -1.5160 -1.8482 2.3185 -0.4027 -2.3817 3.1944 -1.5883 3.8488 -4.0918 -3.1561 -2.7974 0.8021 -1.0871 -0.7366 -0.2123 1.7339 0.7690 -1.8846 2.6984 0.4830 3.9568 5.5705 2.4227 -1.9697 1.4601 0.5152 4.7142 2.8897 -0.4655 3.0228 4.8387 2.3513 -3.0958 5.0053 1.9714 -0.7117 0.4878 -0.3796 4.4570 1.8455 -1.4387 2.7537 3.4891 1.8138 -3.0526 3.7584 1.4690 -0.6758 -3.6309 -4.1254 1.1783 -1.7262 -2.7016 1.0826 -0.4589 0.0490 -1.2624 -0.7127 4.8928 -3.8496 -4.4331 -4.0613 2.4492 -1.0336 -2.1141 -0.1379 0.9236 0.4744 -0.7962 0.6723 -1.3736 3.4094 2.9528 1.3984 -1.8882
-5.0969 -3.4127 -0.0458 -1.2503 4.1508 -1.8099 -4.3443 -4.0759 2.8623 -0.0112 5.5926 -3.1835 -3.5359 -5.7100 1.5082 -0.4736 -2.6081 -0.2405 0.8014 1.3420 0.2150 -1.0837 1.2524 -3.4678 -1.8010 2.4775 -3.9901 -1.4532 1.0632 -2.0155 -1.8519 -0.9682 2.5442 -0.9431 -1.4063 3.6710 -0.8679 3.5849 -4.0574 -3.4253 -2.1686 1.1569 -1.2701 -0.4398 -0.1554 1.7200 0.5502 -1.7846 3.0551 0.0985 3.3452 5.6215 2.0476 -1.8366 1.9891 0.9396 3.8597 2.7939 -1.1672 2.9734 5.1006 1.4764 -2.9372 4.8085 2.1864 -0.6425 0.7340 0.4615 3.9450 1.4412 -1.6846 3.0688 3.7299 0.9928 -2.9252 3.5429 1.7320 -0.6326 -3.7429 -3.4879 0.6235 -2.0138 -2.0580 1.5035 -0.5649 0.0601 -1.3197 -0.6994 4.4947 -3.0279 -3.8314 -4.5359 1.6970 -1.1960 -1.7508 0.2655 0.7099 0.7418 -0.8514 0.4442 -0.8956 3.5082 2.9647 1.1246 -1.8236
-5.3184 -2.8390 0.4424 0.0925 5.6232 -4.4729 -4.0620 -4.5367 2.8060 -1.6475 4.4299 -5.5149 -3.8586 -5.5893 0.8068 -0.7280 -2.5313 -0.2500 0.8214 1.2511 0.6001 -1.3866 1.7716 -2.8055 -2.1058 3.0707 -3.0652 -1.6122 1.4130 -1.3594 -1.4663 -1.2647 2.9226 -0.3887 -1.9239 3.7594 -1.1297 4.1294 -3.2163 -3.3816 -2.1508 1.7107 -1.3827 -0.3695 0.2251 1.5174 0.6172 -1.5411 3.5639 -0.3159 3.3193 5.4260 2.0586 -1.8646 3.0216 -1.2545 2.3543 2.8165 0.0764 4.3665 4.7611 1.6566 -2.9625 4.7662 2.0348 -0.5724 1.7704 -1.7246 2.5019 1.4633 -0.4339 4.5264 3.3872 1.1947 -2.8515 3.4983 1.5987 -0.4717 -3.8986 -3.1904 0.8280 -1.9237 -2.1627 1.7863 -0.7572 0.2481 -0.9292 -0.9402 4.7088 -4.4566 -3.9165 -4.5540 1.4612 -1.3097 -1.7232 0.4725 0.6017 0.7748 -0.5093 0.9443 -1.2744 3.6111 2.7622 1.1816 -1.6576
-4.6231 -2.7079 0.9552 0.0469 5.2037 -5.5428 -3.0324 -4.1242 3.2192 -2.0860 4.2478 -5.8151 -2.8711 -5.3483 1.3145 -0.2990 -2.1821 -0.5867 1.5506 1.3060 -0.2647 -1.6805 2.0553 -2.9381 -2.0449 3.5134 -3.0691 -1.4097 1.7806 -1.4809 -0.5297 -0.9018 2.7238 0.7888 -1.4007 3.2777 -0.9587 4.2126 -3.7237 -2.5391 -1.8368 1.7982 -0.8185 -0.0137 -0.0024 1.4382 1.0747 -2.5873 0.7415 -2.6057 7.3972 5.0983 2.5357 -3.9801 0.9123 -1.2092 7.0381 0.5863 -3.5312 6.4341 4.0720 2.3612 -4.8318 4.9169 2.2615 -2.5668 0.9045 -0.8378 5.7437 0.5820 -3.1311 5.0379 2.7874 1.8938 -4.3368 3.7305 1.8196 -2.1135 -3.1438 -2.9741 1.1195 -1.0883 -1.8087 1.6432 -0.5144 0.5800 -1.2948 -1.0625 4.5388 -5.0628 -2.9797 -4.2631 1.8742 -0.7145 -1.3668 0.2369 0.9337 1.0432 -1.2928 0.7004 -1.8337 4.7008 2.6056 1.6493 -3.0239
-4.9053 -3.1102 0.7215 -1.2287 5.9084 -5.5372 -3.3378 -4.4841 3.0252 0.6651 5.1920 -4.3404 -3.1824 -5.7537 1.1505 -0.5854 -2.3401 -0.8564 1.2600 1.2575 -0.1292 -1.8840 2.1535 -2.7257 -0.9741 3.3215 -2.9994 -1.6422 1.7164 -1.2985 -0.7726 -1.4398 2.5698 0.4981 -2.0816 3.0908 -1.4208 4.0681 -4.1546 -2.8186 -2.2303 1.5585 -1.0602 -0.2441 -0.0179 1.2848 0.8683 -2.4342 1.5409 -1.0123 7.1206 5.0478 2.1836 -3.7024 0.5466 -2.0344 6.8494 2.1511 -0.3849 6.0993 4.0749 1.9488 -4.6010 4.7733 2.0258 -2.2863 0.2239 -2.3436 5.5800 1.8032 -0.7211 4.7270 2.7557 1.5322 -4.1528 3.5547 1.6315 -1.8755 -3.4271 -3.3796 0.8994 -1.3664 -2.2149 1.4056 -0.7523 0.4934 -1.2328 -0.5938 5.0603 -4.6539 -3.2802 -4.6544 1.6839 -0.9876 -1.6200 0.0575 0.7037 0.9301 -1.1732 0.8485 -1.6364 4.4717 2.4874 1.3940 -2.8390
-3.9009 -2.8459 0.3233 0.1883 5.0759 -5.5724 -4.0308 -3.3737 3.3616 -1.8779 5.4911 -4.5292 -3.1534 -5.2072 2.3503 0.1217 -2.1758 -0.2225 1.3524 1.6023 -0.3302 -1.6348 1.3490 -3.3488 -2.0032 2.7300 -3.8274 -1.5146 1.3635 -1.8433 -0.5622 -0.5410 2.8190 0.7794 -0.8206 3.4636 -0.8505 3.3477 -4.4525 -2.4111 -1.7716 1.8771 -0.7885 -0.0603 -0.0372 1.5106 1.0163 -2.5870 0.5769 -3.3350 6.9257 5.0200 2.8642 -3.9129 0.7627 -3.8917 5.5985 0.4787 -2.0035 7.0902 4.1847 2.2860 -4.7944 4.6761 2.8890 -2.5034 0.8189 -3.0772 4.5305 0.5390 -1.1218 5.9349 2.9466 1.6795 -4.3332 3.5324 2.3226 -2.0795 -2.7984 -3.0645 1.3319 -0.9618 -1.6215 1.8351 -0.4573 0.3869 -1.3791 -0.9064 4.6771 -4.8322 -3.3095 -3.9922 2.3971 -0.5010 -1.3301 0.4189 0.8905 1.0903 -1.3454 0.6687 -1.6412 4.6996 2.6146 1.7033 -3.0266
-3.8838 -2.4000 -1.1197 -3.0960 2.5207 0.8922 -3.6382 -4.8741 0.7622 -1.2643 3.6064 -0.1003 -4.2109 -3.0192 1.9522 0.2743 -2.2502 -1.4706 2.3985 1.2688 -0.8252 -1.4825 1.6851 -3.1123 -2.3375 2.8537 -2.6777 -0.1046 1.8448 -2.5191 -0.3414 -0.9479 1.7709 -0.3392 -1.7305 3.0701 -2.9572 2.5447 -1.4039 -2.2749 -1.6115 0.4634 -0.0568 -0.0267 -0.9298 2.7346 0.5242 -3.0196 -0.9859 0.6719 6.5705 6.8038 1.1418 -3.7398 -2.0985 0.2239 5.7529 0.2719 0.3340 6.2343 5.9763 0.8330 -4.7542 6.2740 1.3037 -2.3986 -1.8719 -0.5133 4.6503 0.5160 -0.4658 5.0442 4.5557 0.6554 -4.5033 4.9603 1.1313 -2.1687 -2.8727 -2.8267 -0.0791 -0.8332 -1.7816 0.6020 0.5230 0.5192 -2.1468 -2.3747 2.9334 -0.2095 -3.6321 -3.5375 1.0092 -0.1603 -1.3883 -0.7062 1.9857 0.8133 -1.8875 -0.5104 -0.8470 4.2600 4.0530 0.8110 -3.2626
-5.0930 -3.5738 -0.1122 1.5367 4.6438 -3.2036 -3.3694 -5.8944 1.1096 -0.2264 4.3974 -1.6678 -4.2561 -4.6002 2.7598 -0.6083 -2.5497 -0.2515 0.7215 1.2011 0.3419 -1.4755 1.3666 -3.2629 -1.6120 2.8243 -3.6345 -1.6646 1.2278 -1.7719 -1.9952 -1.0841 2.6461 -0.9663 -1.4170 3.7113 -0.2912 3.3899 -3.8251 -3.5137 -2.3484 1.2096 -1.4589 -0.4170 -0.0349 1.4574 0.6480 -1.8050 2.8851 0.4162 3.1727 5.3225 2.2239 -2.0502 1.7683 1.1869 3.6903 2.7183 -0.8842 2.8737 4.6813 1.8236 -3.1627 4.6532 2.1449 -0.7647 0.5644 0.6066 3.8591 1.4200 -1.5094 3.0568 3.3256 1.3078 -3.0736 3.4008 1.6607 -0.6844 -3.7439 -3.6455 0.5743 -2.1099 -2.1470 1.5636 -0.7966 0.1298 -1.2046 0.2983 4.1577 -2.8361 -3.8313 -4.7232 1.6210 -1.3345 -1.7418 0.3258 0.5315 0.7283 -0.7742 0.3690 -0.7890 3.4904 2.6927 1.2393 -1.8860
-5.2588 -3.2842 -0.0663 1.6079 4.6754 -3.2913 -3.4469 -5.8644 0.8412 0.3914 3.9991 -1.3982 -4.5532 -4.7284 2.4774 -0.6599 -2.6415 -0.7536 0.8885 1.0095 0.1954 -1.6452 1.7353 -3.0493 -1.7595 3.2371 -3.1698 -1.7029 1.3604 -1.5876 -1.5193 -1.6283 2.4970 -0.1923 -2.0709 3.0848 -0.4878 3.7789 -3.6038 -3.3668 -2.4214 1.1356 -1.3642 -0.5301 -0.1379 1.3915 0.6427 -2.0552 2.2562 1.1265 4.5925 5.2803 2.1086 -2.5214 1.2373 0.5132 5.4253 2.4503 0.6821 3.3384 4.5421 1.7895 -3.5992 4.7076 1.9866 -1.1935 0.4694 -0.4791 4.9366 1.6336 -0.4028 2.8198 3.1794 1.3131 -3.4316 3.4478 1.5408 -1.0410 -3.8631 -3.6005 0.4310 -1.9124 -2.4440 1.2751 -0.8221 0.1689 -1.2890 0.4847 4.1453 -2.6895 -3.9943 -4.7498 1.3910 -1.2695 -1.8977 0.0139 0.5706 0.6598 -0.9364 0.6425 -0.9293 3.5627 2.6372 1.1996 -2.2031
-5.3752 -2.6590 0.6918 -0.9184 3.6612 -5.9141 -4.6359 -3.6862 3.4780 1.1913 4.3978 -5.1866 -3.8915 -5.2454 2.0052 -0.5213 -2.3175 0.2029 0.7885 1.3809 0.6133 -1.4243 1.4690 -2.9962 -1.6401 2.9137 -3.3716 -1.6650 1.3359 -1.5138 -1.5727 -0.9030 3.1330 -0.6032 -1.5196 4.1224 -0.3563 3.5258 -3.6457 -3.4455 -1.7469 1.8441 -1.4043 -0.1936 0.3165 1.4365 0.9425 -1.5859 3.4405 -1.8185 2.7171 5.0422 3.0011 -2.0790 2.9417 -0.5680 3.2618 2.6379 -2.8960 2.6680 4.4098 2.4776 -3.1443 4.4481 2.8869 -0.7598 1.6737 -0.4809 3.7064 1.2732 -2.8038 3.1531 3.1387 1.7944 -2.9711 3.2749 2.2484 -0.6017 -4.0142 -2.9631 1.2776 -1.9997 -1.8485 2.0244 -0.7631 0.2972 -0.8927 0.0207 3.8842 -4.9265 -4.1457 -4.0778 2.2787 -1.2630 -1.4970 0.7433 0.5556 0.9511 -0.5124 0.7924 -1.6355 3.6159 2.5738 1.6925 -1.7519
-5.2031 -3.4300 -0.0034 1.5516 4.5742 -3.4139 -3.7326 -5.7229 1.5300 -0.2514 4.3507 -1.9223 -4.5037 -4.1531 2.9890 -0.5946 -2.5710 -0.2429 0.7435 1.1738 0.3206 -1.3740 1.2148 -3.4057 -1.5306 2.6468 -3.8606 -1.6147 1.1435 -1.9162 -1.9277 -1.0461 2.6197 -0.9627 -1.5011 3.6968 -0.2179 3.2375 -4.0293 -3.5321 -2.1928 1.1902 -1.4220 -0.4196 -0.0980 1.4861 0.7534 -1.8550 3.0581 -0.0307 3.3930 5.2650 2.5318 -2.0526 2.6606 -1.2798 2.7707 2.1540 0.6956 4.0745 4.6874 2.0411 -3.1636 4.5552 2.4798 -0.7879 1.3887 -1.7060 2.8669 0.7784 0.2323 4.1813 3.3615 1.4503 -3.0925 3.3286 1.9317 -0.7247 -3.8738 -3.5322 0.7157 -2.1174 -2.0935 1.5359 -0.7352 0.1001 -1.2661 0.3160 4.0699 -3.0610 -4.0762 -4.4571 1.8854 -1.3197 -1.7371 0.2973 0.5636 0.7501 -0.8170 0.3979 -0.9053 3.5687 2.6932 1.4011 -1.9232
-5.3414 -3.2474 0.5119 -0.4716 5.2771 -5.6441 -4.2931 -4.3523 3.2437 1.1051 4.7396 -3.9834 -3.7119 -5.7738 1.5733 -0.7686 -2.4574 -0.1525 0.8675 1.0432 0.6669 -1.6976 1.7798 -2.6889 -0.7720 2.9519 -2.8747 -1.7618 1.4964 -1.2048 -1.7008 -1.2418 3.0091 -0.6010 -1.8015 3.8897 -0.9563 3.5701 -4.1676 -3.4984 -2.2138 1.6985 -1.4715 -0.3191 0.3478 1.2921 0.8815 -1.6233 3.3988 -0.5838 2.9161 5.1411 2.4377 -2.1170 2.7150 -1.6075 2.1486 2.7724 0.0108 3.9473 4.3664 2.1939 -3.1890 4.6199 2.2043 -0.7827 1.4582 -1.9615 2.4696 1.4079 -0.3659 4.2864 3.0155 1.6888 -3.0087 3.3710 1.7328 -0.6194 -3.9410 -3.4433 1.0508 -2.0463 -2.1631 1.8509 -0.8950 0.3155 -0.8252 -0.0466 4.5372 -4.5608 -3.9457 -4.6365 1.9671 -1.3945 -1.6791 0.5666 0.5065 0.8004 -0.4806 0.7575 -1.2881 3.5516 2.5202 1.4751 -1.7735
-4.0258 -2.9656 0.4639 0.8896 4.7163 -4.8405 -2.5378 -5.1120 2.4538 0.0154 4.2350 -2.7130 -3.8832 -3.5533 3.4267 0.1288 -2.0957 -0.3983 1.2832 1.6690 -0.5392 -1.7317 1.3527 -3.5534 -2.0832 2.7461 -4.0218 -1.5792 1.3736 -2.0508 -0.5727 -0.4494 2.6368 0.6589 -0.7777 3.4594 -0.9387 3.3240 -4.6976 -2.3972 -1.7386 1.7128 -0.8315 -0.0074 -0.2289 1.4409 1.0924 -2.7974 -0.1382 -3.0811 6.9899 4.9273 2.9744 -4.1366 0.0282 -3.7154 5.6954 -0.0301 -1.7449 7.1015 4.1044 2.3677 -5.0104 4.5820 3.0111 -2.7274 0.2813 -2.9677 4.6070 0.2396 -0.9354 5.9224 2.8816 1.7395 -4.5400 3.4493 2.4290 -2.2949 -2.7734 -3.0878 1.3049 -0.9501 -1.5558 1.6675 -0.5065 0.4177 -1.5814 -0.0258 4.1039 -4.0088 -3.1321 -3.8928 2.5246 -0.5089 -1.2615 0.2442 0.8306 1.1423 -1.5513 0.3518 -1.5195 4.7143 2.5532 1.7670 -3.2335
-3.3831 0.9646 2.0802 -2.9822 2.3009 -7.2436 -3.1834 -0.4718 4.7117 -3.2662 3.6849 -5.3663 -4.5196 -1.7794 3.4215 -1.0739 -1.7686 -0.4148 1.6497 2.4002 -0.2771 -0.8056 0.8106 -3.3049 -1.6546 1.9205 -3.8672 -0.7187 1.0674 -1.8180 0.6189 -1.6113 2.5946 0.9860 -3.0800 2.6309 -2.0270 1.6575 -5.2402 -1.4268 -0.3265 2.6053 0.2425 0.0453 0.1628 2.4579 1.4074 -2.2358 -0.3365 -5.1292 6.1501 5.5492 3.9204 -3.5082 -1.1976 -4.9928 4.9899 0.9066 -4.6154 6.1319 5.0862 2.9530 -4.3198 4.9403 4.1223 -2.2064 -0.7587 -4.3357 3.9025 1.3816 -3.9042 4.9557 3.9839 2.1083 -3.8886 3.9256 3.3346 -1.8084 -2.8553 -0.4250 2.3442 -0.7120 -1.3869 1.9103 0.5249 0.4709 -1.2002 -2.7813 2.6051 -5.9133 -3.5890 -0.9903 3.5274 -0.5484 -1.0551 0.4405 1.5940 1.5463 -1.1566 0.5681 -3.7422 3.8955 3.4047 2.2941 -2.6857
-4.8628 -0.8838 0.3076 0.5180 3.2474 -5.2525 -5.3496 -3.1457 2.7358 -0.9724 2.7261 -3.5125 -5.8912 -0.9593 3.0733 -0.8997 -2.4192 0.2888 0.4790 2.3266 0.0150 0.0316 -0.5394 -3.0906 -0.7517 -0.0519 -4.2876 -0.6722 -0.0644 -1.8422 -1.0979 -0.6959 3.3000 -0.4678 -1.6721 4.2744 -0.0363 1.0399 -4.9166 -3.1510 -0.6663 1.9825 -0.5117 -0.1558 0.5653 2.0479 1.3896 -1.4422 2.9817 -3.7584 2.8047 4.4831 4.5873 -2.5910 3.1054 -2.4075 3.3233 1.7836 -4.3687 2.8018 4.6183 3.3861 -3.1807 3.4580 4.7844 -1.5830 2.0205 -1.7576 3.7859 0.6156 -3.6712 3.3070 3.7455 2.2879 -2.8008 2.6542 3.7654 -1.2307 -4.1688 -1.5757 1.4618 -1.8879 -1.3692 2.1926 0.2622 0.0114 -0.6553 -0.2178 2.3496 -4.5057 -5.2094 -1.8119 2.5232 -1.0772 -1.3713 0.9101 0.9155 1.3833 -0.6371 0.7163 -2.4023 3.7428 2.7891 2.4624 -1.8676
-4.8264 -2.2748 1.3841 0.1964 3.7567 -5.5416 -3.8787 -2.0288 4.5892 -1.0934 3.0371 -3.7145 -4.7221 -0.2128 3.5033 -0.5721 -2.4682 -0.4438 0.7301 2.3177 -0.4207 -0.0235 -0.2362 -3.7323 -0.9321 0.3529 -4.7867 -0.5953 0.0974 -2.3750 -0.5715 -0.8293 2.6949 -0.7059 -1.4048 4.0884 -0.2976 1.5166 -5.3718 -2.7211 -1.0965 1.5401 -0.1764 -0.2297 -0.0160 2.1426 1.5602 -2.1220 1.5831 -4.9522 4.7966 4.4036 4.9098 -3.2020 2.2069 -3.6433 4.8738 0.2735 -5.0584 4.5101 4.5013 3.7694 -3.9083 3.4761 4.9909 -2.0890 1.4800 -2.5346 4.6435 -0.5120 -3.8632 4.2652 3.6869 2.6201 -3.5489 2.7261 3.9249 -1.7572 -3.6238 -1.9946 2.2590 -1.3540 -1.5962 1.6471 0.4599 0.0737 -1.2912 -0.4463 2.7751 -4.8145 -4.1270 -1.2806 3.4843 -0.6834 -1.4835 0.2864 1.1015 1.4514 -1.2070 0.0734 -2.6523 4.2944 2.8211 2.6860 -2.5179
-5.2570 0.2273 1.7691 -0.3931 3.0627 -5.9108 -4.6494 -1.6639 4.1265 -1.5159 2.7834 -3.8663 -5.3122 -2.9046 2.3444 -1.5112 -1.9623 0.1967 0.4885 2.5819 -0.2206 -0.2758 -0.3594 -3.0564 -1.2005 -0.0804 -4.2179 -0.8461 0.3091 -1.8294 -0.7315 -0.5330 3.3041 -0.0794 -1.6737 4.0563 -0.6093 0.9325 -5.0682 -3.0098 -0.1948 2.5244 -0.6271 0.1453 0.5776 2.1774 1.2985 -1.2147 2.5309 -4.1725 1.7609 5.2767 4.0079 -1.9575 1.1307 -4.5064 1.9386 3.0345 -3.0557 2.3168 5.3244 2.7660 -2.4716 4.1248 4.4236 -1.1785 0.3346 -3.6956 2.6564 2.1730 -2.1733 3.0865 4.2272 1.8414 -2.2385 3.1138 3.5636 -0.9595 -4.1847 -0.8255 1.9330 -1.8191 -1.0186 2.3660 0.1158 0.2376 -0.6663 -0.8890 2.2767 -4.8897 -4.7502 -1.9152 2.8005 -1.3340 -0.9909 0.9317 0.9267 1.5183 -0.6491 0.8668 -2.4681 3.2265 3.1495 2.2183 -1.5209
-4.5232 0.0332 1.8725 0.7218 2.7481 -6.5893 -4.1109 -0.6993 4.7522 -0.9217 1.0901 -6.8824 -4.7077 -2.6451 3.7447 -1.2221 -1.8776 -0.0527 0.8647 2.6282 -0.0257 -0.7940 0.3829 -3.2314 -1.5594 1.3377 -4.1126 -1.0720 0.7574 -1.7978 0.0788 -0.9522 3.0149 0.1596 -1.7456 4.3008 -0.6216 2.1992 -4.8017 -2.2788 -0.3377 2.6979 -0.3201 0.2002 0.4312 1.8832 1.7660 -1.9468 1.2829 -5.8474 3.7982 4.5913 4.7225 -3.1312 2.2919 -4.8030 3.7909 -0.0119 -5.5318 3.9777 4.2168 3.7642 -3.9976 4.0131 4.7576 -1.8008 1.9318 -3.5152 3.9445 -0.4009 -4.1445 4.1460 3.2403 2.7634 -3.5977 3.1181 3.8246 -1.4307 -3.5617 -0.9826 2.4422 -1.1974 -1.2001 2.2367 0.1309 0.5017 -0.9188 -0.3134 1.9610 -6.1279 -4.1572 -1.5511 3.7003 -0.9443 -0.9925 0.7565 0.9807 1.7621 -0.8878 0.5261 -3.1710 4.0950 2.6860 2.7967 -2.3691
-1.8218 -4.9879 -0.4304 0.3580 4.9465 -4.4560 -1.0252 -5.0635 2.4929 1.1612 4.3416 -2.3292 0.8894 -4.6598 1.3399 -2.8049 -0.3428 -0.0939 2.0573 -0.0261 -1.0063 -1.7712 2.5068 -1.3704 -1.5836 3.9986 -1.5077 -0.5677 1.9100 -0.6777 -2.5864 -1.2807 2.5728 -2.5040 -2.0662 3.8651 -1.1614 4.2888 -2.8622 -2.2313 -3.0801 0.9985 -0.4888 -0.4620 -0.1389 1.2732 1.0091 -2.9494 0.0361 -0.2775 6.8132 4.7271 1.8897 -5.1442 -1.3744 0.0619 6.7516 0.5514 -1.1689 5.9484 3.5577 2.4720 -5.4635 4.7961 0.9906 -4.0073 -2.1639 -0.4985 5.8163 -0.2993 -1.7778 4.9431 2.3663 2.1827 -4.6823 3.6931 0.7326 -3.2822 -1.1860 -3.9029 0.4073 -1.6810 -1.8087 1.4675 -0.2936 0.5155 -1.2015 0.1706 4.5180 -3.1572 -0.3253 -4.5511 1.4534 -1.7485 -0.8154 0.3202 1.1512 0.4636 -1.6747 -1.5951 -1.4289 4.8525 2.4247 1.3707 -3.6076
-5.5516 -1.0102 2.2305 0.1406 1.4487 -7.3595 -4.1644 0.4108 4.5296 0.8831 2.6428 -5.4724 -4.5423 -1.7096 5.2474 -1.4644 -2.1266 -0.2681 0.6476 2.2449 0.6796 -0.4362 0.4709 -3.0823 -1.2156 1.4134 -3.9680 -0.9593 0.6704 -1.6825 -0.9975 -1.4228 3.0957 -0.4736 -2.7489 3.6053 -0.9387 1.1172 -5.3552 -3.1350 -0.6487 2.2116 -0.6784 -0.1214 0.5771 1.9161 1.6628 -1.1942 2.6921 -4.5137 1.3170 4.6085 4.8195 -1.6909 1.3018 -4.8446 1.0666 3.0089 -3.6287 2.2793 4.4151 3.9342 -2.6849 3.8436 4.7035 -0.4634 0.3312 -4.2660 1.7949 1.9582 -2.9983 3.0641 3.4468 2.8614 -2.5253 2.9554 3.7051 -0.3149 -4.2305 -1.3332 2.8920 -2.0321 -1.5839 1.9987 0.0439 0.2901 -0.6186 0.0639 1.7936 -6.0256 -4.3084 -0.9224 4.3383 -1.3934 -1.3056 0.6464 0.8754 1.5194 -0.2833 0.6667 -3.2790 2.8084 2.7224 2.7547 -1.3936
1.3580 0.4957 3.7699 -0.1451 3.7424 -6.7078 -1.2821 -0.6021 4.9593 -1.7271 2.0475 -7.1070 -1.6707 1.4649 4.1229 0.4002 -2.0744 -0.2191 0.7318 1.8457 -0.3329 -1.7365 0.7993 -3.7283 -2.3334 2.0558 -4.3153 -1.8093 0.8929 -2.2232 -1.1724 -3.0915 1.8941 -1.9636 -3.4661 3.1332 -1.2766 2.8457 -4.9135 0.1226 -1.2482 2.6815 -0.9931 -0.2295 -0.2503 1.2023 1.4552 -2.5863 0.2381 -5.5216 6.1977 4.1155 4.2915 -3.5624 -0.3525 -6.2540 5.0914 0.1092 -4.1852 6.2604 3.5155 3.5774 -4.5315 3.7131 4.1109 -2.1801 -1.0189 -5.5995 4.1212 -0.6193 -3.4858 5.2198 2.4750 2.6204 -4.1915 2.7531 3.2222 -1.8689 0.0482 0.1398 3.1054 -0.9433 -1.5913 1.7416 -0.6056 0.2524 -1.5687 -1.0940 2.8347 -6.2839 -1.0630 0.4017 4.0827 -0.4181 -1.3434 0.3338 0.4925 1.2925 -1.4026 -1.1363 -4.1501 4.1703 2.0861 2.4541 -2.9119
1.2845 1.6675 3.7158 -5.6625 0.7673 -3.9152 -1.5030 0.8146 4.4902 -4.0704 2.3572 -3.2350 -1.7743 2.5912 3.1002 1.2751 -1.4652 0.0989 1.6566 2.4787 -0.9913 -1.2903 0.0985 -3.5007 -2.0639 0.7848 -4.6047 -0.3379 1.1031 -2.9000 -0.8739 -2.1714 1.8197 -1.9607 -2.3307 2.8668 -3.4648 0.4318 -4.5054 0.2669 -0.2395 2.6595 -0.0205 0.3210 -0.6024 2.8333 1.1660 -2.5281 -2.0112 -6.0359 5.0381 6.3065 3.3539 -3.3363 -2.6925 -5.9070 3.7628 -1.3313 -4.9907 5.5424 5.9545 2.3266 -4.1299 5.4529 3.7311 -2.2252 -2.6319 -4.7495 3.0786 -1.2754 -3.7367 4.8076 4.7248 1.5947 -3.8705 4.3215 3.0459 -1.9823 0.1613 1.2028 2.8177 -0.5310 -0.7123 1.5277 0.6237 0.4938 -1.9000 -4.3716 1.2541 -3.8594 -1.1401 1.6036 3.4512 0.3532 -0.6742 0.2869 1.7455 1.5041 -1.7330 -1.8708 -3.6251 3.6049 3.9177 1.9461 -2.8495
-1.4578 2.3375 3.2003 -0.6557 2.9943 -6.1946 -4.1369 0.8202 2.5714 -1.8208 2.0616 -4.3792 -3.1087 -0.0840 4.3908 1.4940 -0.6067 0.9710 -0.1377 2.1731 -1.1156 0.1559 -0.7263 -4.0157 -0.8018 -0.5195 -5.1672 -0.6075 -0.5523 -2.7228 -0.0160 -2.2378 2.7527 -0.9270 -2.8707 3.7926 -0.4877 0.7272 -5.8359 -0.6925 0.0902 2.9290 -0.4099 -0.4444 -0.3197 1.7305 1.5660 -2.3811 0.5496 -6.4234 5.7297 3.4049 5.1914 -3.6250 0.9625 -5.1049 6.1764 -0.3080 -6.5400 4.7004 3.7901 4.0360 -4.1952 2.3748 5.1820 -2.6025 0.4995 -4.0028 5.5557 -0.8078 -5.3481 4.0320 3.1789 2.7831 -3.7825 1.8172 4.0202 -2.2171 -1.8053 0.9823 2.6220 -0.6507 -1.0531 2.0147 0.2886 -0.1638 -1.5686 -1.0403 1.9237 -5.4132 -3.0489 0.4986 3.3189 0.2720 -0.6784 0.8603 0.5750 1.3281 -1.6482 -0.3881 -4.1241 4.4065 2.2156 2.7648 -2.8401
-1.5324 2.2753 3.2234 0.0873 3.0799 -6.1228 -4.1804 0.6929 2.6166 -1.2425 2.3881 -4.3125 -3.1180 -0.1821 4.4305 1.4721 -0.6041 0.9795 -0.1699 2.1254 -1.0061 0.1058 -0.7674 -3.9972 -0.7913 -0.3369 -5.1353 -0.6570 -0.6100 -2.7014 0.0180 -2.2623 2.7824 -0.8889 -2.9389 3.7979 -0.2197 0.8229 -5.7891 -0.7162 0.0457 2.9520 -0.4447 -0.4959 -0.2984 1.5672 1.5754 -2.4679 0.6097 -6.4325 5.8208 3.0269 5.2532 -3.8231 0.0837 -6.5163 4.4703 0.6496 -5.2434 6.4479 3.3668 4.1156 -4.4549 2.1161 5.2065 -2.6941 -0.3569 -5.4084 3.8446 0.1703 -4.0472 5.7703 2.8327 2.8436 -3.9968 1.6243 4.0279 -2.2722 -1.8522 0.9106 2.6504 -0.6530 -1.0995 2.0408 0.2366 -0.1967 -1.5528 -0.5121 2.1034 -5.3531 -3.0794 0.3992 3.3567 0.2515 -0.7067 0.8779 0.4923 1.3022 -1.6309 -0.2771 -4.1101 4.5005 1.9806 2.7908 -2.9538
1.0948 -4.2083 2.3136 -4.9095 4.4261 -0.0150 1.0802 -5.0223 -0.6098 -3.0468 3.8005 1.2787 2.0806 -2.9786 -0.5488 -1.0558 -1.7104 -1.5852 2.7076 0.5485 -0.7338 -1.1081 2.5962 -1.9899 -1.5341 3.8103 -1.2013 0.2869 2.2090 -1.5707 -1.6663 -0.6941 1.7117 -2.3273 -1.3564 2.9023 -2.9776 3.8080 -1.0996 0.2619 -2.1664 1.3714 0.0009 0.0498 -0.5089 2.3997 0.2798 -3.0378 -3.8186 1.3460 5.8739 6.2248 -0.5056 -4.5197 -2.3906 1.1782 5.6739 -4.6892 0.6819 5.0933 5.1666 -0.4808 -5.3492 6.0414 -0.2379 -3.1052 -1.9366 0.3518 4.7141 -4.1994 -0.2147 4.0602 3.8415 -0.2003 -4.8259 4.8140 0.0265 -2.6239 0.4052 -3.5943 1.1179 -1.0050 -1.7163 0.8081 0.4999 0.7165 -1.6911 -3.5991 4.0132 0.1179 1.2911 -3.7875 -0.0845 -0.7110 -1.1312 -0.5571 1.9938 0.4894 -1.7302 -2.8764 -0.3626 3.8635 3.6603 0.0359 -3.5124
2.0150 -4.5072 1.0413 0.9913 5.4685 -3.1412 2.6790 -1.9484 2.7430 0.3695 4.5090 -1.0873 1.2001 -3.2855 3.8452 -0.8106 -2.4660 -1.0843 1.5685 0.7909 -0.6824 -1.9287 2.2338 -2.4648 -2.1214 3.7253 -2.3102 -1.4686 1.6693 -1.1405 -2.4291 -2.7234 1.5803 -2.7594 -3.1588 2.9975 -1.0509 4.4183 -2.9990 -0.1545 -3.5625 1.3929 -0.8251 -0.3946 -0.0668 0.9751 0.7445 -2.9423 -2.9055 0.0156 5.8772 4.4567 1.8457 -4.9828 -4.0883 -0.3433 5.1139 -1.7587 -0.6628 5.6956 3.2747 1.8198 -5.6237 4.5153 1.5282 -3.5679 -4.0359 -1.3442 4.2149 -1.7048 -1.7449 4.7302 2.0630 1.4693 -4.9005 3.3938 1.1963 -2.9035 1.2683 -3.2456 1.4110 -0.9717 -2.3507 1.3336 -0.7271 0.3627 -1.3054 0.1058 4.7846 -2.3331 1.6753 -2.8609 2.8037 -0.8719 -1.7762 -0.0696 0.7384 0.6595 -1.5767 -2.7836 -2.0478 3.9862 2.1061 1.1815 -3.5847
2.2334 1.2365 3.8700 -2.5125 3.4007 -6.5188 -0.6021 2.5522 3.8610 -2.5712 1.0502 -6.5842 -0.5736 0.7228 5.2190 1.1849 -1.5649 0.3413 1.0603 2.5136 -0.4701 -1.4746 0.6994 -3.2614 -2.8643 1.0513 -3.7352 -1.3495 1.0684 -1.8041 -0.4262 -2.5197 2.4987 -1.3541 -2.8018 3.6656 -2.8034 2.2521 -4.5443 0.8571 -0.5942 3.1638 -0.3058 0.2014 0.1908 1.8138 1.3821 -2.3747 -2.3938 -6.9110 4.3758 4.8365 3.8189 -3.9243 -3.0799 -6.1278 3.3646 -1.3941 -6.3576 5.0853 4.3971 2.7575 -4.6238 4.2267 4.1445 -2.6485 -2.7086 -4.8561 3.1271 -1.0012 -4.9788 4.8356 3.3206 1.9350 -4.0968 3.2343 3.3789 -2.1617 0.8938 0.8584 3.2773 -0.2028 -1.0301 2.2535 -0.0753 0.5149 -1.2088 -2.6306 2.1660 -5.9139 -0.1678 1.3204 4.2340 0.3132 -0.8541 0.8345 0.9836 1.5978 -1.2833 -1.6082 -4.2599 3.8712 2.7443 2.2328 -2.9156
-0.5257 -4.4687 2.3865 -4.0050 3.4481 0.5843 1.5920 -5.2685 0.3743 -1.9753 4.3122 1.3983 2.4072 -3.4408 1.4576 -0.9089 -1.6495 -1.7311 2.8809 -0.0089 -0.8400 -0.2781 2.9696 -2.0456 -0.9185 4.0982 -1.2744 0.6567 2.2088 -1.1365 -1.9505 -0.7182 1.4629 -2.7957 -1.3377 2.5602 -2.2556 3.6970 -0.8873 -0.0897 -2.3057 1.4110 0.1657 -0.0589 -0.4364 2.4793 0.5585 -3.0746 -4.4984 1.4762 5.3188 6.0866 -0.2262 -5.0305 -5.2421 1.0190 4.1592 -3.2521 1.0204 5.5381 5.1076 0.4483 -5.6592 5.9047 -0.6462 -3.6535 -4.6794 0.1564 3.2931 -2.6483 0.0798 4.6081 3.8678 0.7458 -4.9623 4.7540 -0.3750 -3.0131 0.0040 -3.7403 1.1707 -1.2035 -1.7588 0.6466 0.6897 0.7460 -1.5225 -2.6943 3.8483 0.4157 1.4617 -4.0877 1.0317 -0.6486 -1.1575 -0.6342 2.1407 0.3706 -1.7418 -3.3196 -0.3147 3.5096 3.6906 0.3600 -3.6836
2.1527 -3.3391 2.4882 -1.5508 5.0297 1.4691 1.7747 -4.5924 -0.4892 -0.4009 5.2002 -0.5743 2.7410 -2.5280 -0.4366 -1.3387 -2.6760 -1.1980 0.2285 -1.2259 -3.8464 -2.4228 2.0010 -1.9109 -2.4293 3.5021 -1.7363 -1.0065 1.5395 -2.1489 -1.6077 -1.0423 1.8788 -1.9395 -1.6236 3.2364 -2.3254 3.8158 -0.3251 0.6083 -1.9006 1.3357 -0.7296 -0.4712 -0.8089 1.4764 0.2381 -2.5225 -3.1492 1.3488 6.0717 5.2753 0.3461 -4.2399 -4.1296 0.6318 5.2767 -1.8378 1.0981 5.9099 5.0374 0.9708 -3.0730 4.2018 -0.3609 -4.9144 -3.7285 -0.2798 4.3724 -1.4037 0.1035 4.9444 3.7109 0.9275 -2.4867 2.9709 -0.3941 -4.3733 1.2036 -3.2287 1.3190 -0.8142 -2.0252 1.0445 -0.8984 0.0310 -2.1548 -1.3777 4.7123 0.1366 1.9956 -3.3658 0.0491 -1.0093 -1.7702 -0.4348 0.3213 -0.3891 -2.9518 -2.3109 -0.5520 4.1972 2.7121 0.2685 -3.1037
1.6629 -4.4864 0.4850 -3.9181 5.8800 -1.7296 1.2559 -5.0402 3.2447 -3.0318 4.1973 -3.1124 2.7145 -3.3152 3.5095 -0.5646 -1.7711 -0.8512 2.9955 0.0840 -1.0162 -0.6895 2.8788 -0.8820 -0.6525 4.2645 -1.4832 0.7011 2.2947 -0.9186 -1.6706 -1.4091 2.0394 -1.7610 -1.3035 3.5516 -1.8869 4.9525 -1.1669 -0.0361 -3.1175 1.5519 0.5003 0.0722 0.0623 2.1007 0.5875 -3.1168 -5.6318 -0.3082 5.1360 5.3811 0.4091 -5.7107 -5.3012 -1.6761 4.7801 -4.7181 0.6648 4.9713 4.2340 0.9862 -6.1111 5.4928 -0.1079 -4.3597 -4.0928 -1.9671 4.2626 -3.4113 0.3490 4.4164 3.1090 1.0857 -5.1938 4.4477 -0.0236 -3.5176 1.3893 -3.4109 1.5103 -0.2480 -1.6665 1.5557 0.6937 0.8028 -1.1851 -2.9356 4.9719 -2.0691 1.8482 -3.8841 2.8577 -0.1333 -1.1588 0.1227 2.0682 0.4513 -1.7326 -3.1196 -0.9082 4.0307 3.2078 0.6222 -3.9313
2.8331 0.4233 3.7733 -5.1528 0.9692 -5.3940 0.2648 2.4512 3.7376 -5.1137 2.5900 -3.6913 0.2171 0.7637 5.2698 1.0387 -1.6473 0.0659 2.3950 2.0552 -0.2912 -1.0183 1.3840 -3.1405 -2.4255 1.9162 -3.1635 -0.3829 1.8778 -1.8625 -0.8237 -2.2247 2.1428 -1.9486 -2.2407 3.1587 -3.2154 1.2378 -4.1678 0.9564 -0.8388 2.9659 0.1667 0.5007 0.0583 2.5745 1.2690 -2.4878 -4.2066 -5.8789 3.4867 6.2570 2.7100 -3.8231 -4.5487 -4.8701 2.5008 -3.1457 -5.6942 4.2925 5.3675 2.2141 -4.7018 5.9130 2.7933 -2.4161 -3.7982 -3.7593 2.3819 -2.3439 -4.4860 4.1738 4.0679 1.7557 -4.2400 4.7135 2.3608 -1.9908 1.4441 0.5171 3.1821 -0.1587 -0.8581 2.0175 0.5617 0.8440 -1.2965 -4.5206 1.6519 -4.3755 0.5705 1.2074 4.1877 0.4203 -0.7402 0.6171 1.9400 1.4709 -1.2694 -2.6356 -3.5642 3.2360 3.7369 1.8391 -2.9366
0.2546 -5.9851 1.5605 -2.1396 5.9866 -0.2522 -1.5573 -5.5985 -0.8622 -0.5489 5.0201 -1.6912 0.2317 -4.2085 -1.0981 -1.7622 -1.5061 -0.1534 2.0264 -1.4515 -1.2757 0.1342 2.3687 0.8685 0.6382 3.7689 0.6185 1.1820 1.3850 0.4104 -0.7214 -1.8400 3.1513 -2.0185 -1.3796 3.7903 -0.4814 4.6849 0.6675 0.0421 -3.5976 1.6258 0.3028 -0.8449 0.6658 1.7349 0.6064 -2.3417 -2.9807 2.7652 3.2200 4.2230 0.4281 -5.6946 -3.3812 1.7560 2.2581 -2.3050 2.4048 4.3260 3.6273 1.5844 -5.3529 4.0366 -0.7498 -4.8680 -3.0645 0.4657 2.4649 -1.9561 1.0085 4.5460 2.7913 1.6488 -4.1659 3.2587 -0.6893 -3.7728 -0.5919 -4.8111 1.1186 -0.9610 -2.5588 1.8351 0.5534 0.2059 -0.3006 -1.0195 5.2153 -0.4918 -0.5616 -4.8054 -0.3860 -0.8593 -1.5895 0.6766 1.5377 -0.3265 -1.3318 -2.2799 0.0790 3.6268 2.6150 0.5601 -3.3917
3.3503 -2.9891 2.5037 -4.4798 5.9242 -0.6321 2.4332 -4.7439 0.0868 -3.1411 5.6645 -2.5483 2.8121 -2.6138 -0.6217 -0.9338 -2.4431 -0.5389 0.2115 -1.1241 -3.3798 -1.6765 2.3706 -1.1771 -1.4897 3.8616 -1.0357 -0.3400 1.7493 -1.4875 -0.6517 -0.9618 2.5491 -2.0005 -1.5270 2.9328 -2.7225 4.4417 -0.5485 1.4766 -1.7373 1.6740 -0.0720 -0.3090 -0.2389 1.8392 0.1967 -2.3459 -4.0898 0.6239 5.9786 5.2895 -0.2827 -4.6380 -3.0173 -0.2940 6.3170 -4.4062 0.8456 4.6903 5.3200 0.4424 -3.5058 4.0469 -0.8948 -5.0726 -2.3400 -0.9263 5.3423 -3.6830 0.1543 3.6370 4.1119 0.6054 -2.7188 2.9271 -0.7382 -4.3445 2.0939 -3.0556 1.6677 0.0326 -1.8962 1.5772 -0.4260 0.2409 -1.5267 -3.4192 5.3604 -1.3123 2.4882 -3.3982 0.2572 -0.3855 -1.5922 0.1579 0.5649 -0.3066 -2.5337 -2.6799 -0.6860 3.9492 2.9567 0.0383 -3.1144
2.0604 -2.5805 3.5944 -3.9638 4.0595 0.7743 2.7629 -3.9736 0.7491 -2.2169 4.9832 -0.5013 3.2065 -1.7416 0.8651 -0.0957 -2.4661 -1.1552 2.4100 1.1298 -0.9034 -1.8300 1.4625 -2.3942 -2.5477 2.7906 -2.3501 -0.4116 1.6515 -1.9151 -1.8114 -1.2741 1.5973 -2.4418 -1.9810 2.7821 -3.2419 2.9108 -1.0838 0.5928 -1.5708 1.9859 0.0270 -0.2518 -0.4801 2.2846 0.2964 -3.0854 -5.3465 0.3193 4.9459 6.1926 0.5353 -4.5369 -3.9652 0.7563 4.8610 -5.7349 -0.8021 4.3130 5.1737 0.2626 -5.3712 5.9273 0.7901 -3.1333 -3.0733 0.0433 4.1498 -4.7709 -1.5744 3.5463 3.8132 0.2143 -4.8648 4.6679 0.7383 -2.6649 1.4419 -2.7311 2.2234 -0.5353 -1.9628 1.1478 0.3059 0.3278 -1.7769 -3.0912 4.0388 -0.2961 2.5563 -2.7155 1.2136 -0.1986 -1.6012 -0.2872 1.7881 0.6277 -1.8346 -3.4929 -1.1614 3.4490 3.5586 0.4501 -3.5635
2.1985 1.4900 4.2923 -3.7857 0.4870 -6.8509 -0.6778 1.1124 5.3505 -4.3595 2.1065 -5.2467 -0.6499 2.8955 3.9438 1.3787 -1.4451 0.8050 1.6743 2.3988 -0.0572 -0.8660 0.7558 -3.1341 -2.1383 1.3202 -3.7058 -0.8214 1.1955 -1.6889 -0.4385 -2.2550 2.8310 -1.9106 -2.6032 2.7450 -2.4857 0.6713 -4.9508 0.7794 -0.3282 3.5622 -0.0445 0.3435 0.4296 2.2609 1.4162 -2.0963 -2.8838 -6.7752 3.1292 5.3830 3.7751 -3.5533 -2.1319 -6.0925 4.1662 -3.2740 -6.1013 2.0328 4.7364 2.9298 -4.3759 4.9577 3.9050 -2.1722 -1.8137 -4.7920 4.0259 -2.9239 -4.6980 1.8801 3.6184 2.1442 -3.8790 3.9301 3.1698 -1.7133 0.9206 1.1220 3.5719 -0.1704 -0.7823 2.5435 0.3441 0.5870 -0.9484 -3.5826 1.1415 -5.6539 -0.2193 1.7980 4.2772 0.4949 -0.6818 1.1842 1.4819 1.5895 -0.9595 -2.1888 -4.0696 2.8178 3.2074 2.2698 -2.6018
1.0994 1.4071 4.5445 -1.7917 3.9179 -4.9429 3.7426 0.8539 3.0953 -2.8065 3.1589 -2.9624 2.2695 1.6779 1.5691 1.6336 -1.6607 0.2656 0.4524 1.9277 -0.8715 -1.6836 -0.2927 -3.4940 -2.8166 0.5057 -4.0954 -1.6382 -0.0408 -2.0054 -0.9905 -2.0092 2.5016 -1.1534 -2.3993 3.9603 -2.2717 1.6768 -4.7518 0.2722 0.1073 2.7154 -0.3954 -0.5885 -0.0142 1.4761 0.7867 -2.6406 -3.9081 -5.5810 4.8439 4.2823 3.4829 -4.1676 -4.3899 -4.2857 4.3992 -2.5860 -5.7963 4.9642 3.9485 2.3838 -4.8670 3.6360 3.7521 -2.8966 -3.5173 -3.3053 4.0979 -1.6450 -4.7361 4.6400 2.9474 1.4675 -4.3466 2.7168 2.8979 -2.4127 1.4778 0.3930 3.4873 0.3091 -1.2656 2.2247 -0.2631 -0.3087 -1.4340 -2.3253 2.9218 -4.1498 2.4961 1.0483 2.5915 0.5896 -1.2071 0.7313 0.5803 0.9427 -1.5920 -2.0831 -3.5471 4.1841 2.3357 1.7141 -3.1713
1.1964 -5.4634 0.6664 2.3018 5.1799 -1.3665 0.6682 -4.8365 3.6106 1.5040 3.7634 0.3309 2.3632 -3.4810 2.9407 -1.3610 -2.5041 -0.8640 1.7663 -0.1133 -0.3298 -1.3229 2.5814 -1.3212 -1.1273 4.0084 -0.8607 -0.9952 1.6429 -0.1818 -2.6662 -2.8605 1.8904 -3.0821 -1.9831 3.0526 0.0962 4.5311 -1.4356 -0.7095 -4.1234 1.3576 -0.7374 -0.6870 0.4277 0.9836 0.7382 -2.3632 -3.3979 2.1741 2.0550 4.4069 1.2934 -4.6805 -4.4367 1.2422 1.6543 -2.3428 1.7387 2.7662 3.2436 1.8603 -5.0472 4.4806 0.5293 -3.4494 -4.3402 -0.0603 1.9807 -2.2393 0.3358 3.1212 2.0629 1.6998 -4.2157 3.3850 0.3745 -2.6862 0.7448 -4.1736 1.3150 -1.1908 -2.7530 1.5439 -0.6007 0.2631 -0.6599 1.2984 4.4573 -0.7528 1.3384 -4.1030 2.6910 -1.1008 -2.0059 0.2270 0.8607 0.2739 -1.0619 -3.1772 -0.5380 2.7127 2.1271 0.9984 -3.0676
2.8116 -2.7957 2.7434 -2.5335 4.0021 2.1643 2.1232 -4.7788 0.4399 -0.6009 4.3663 0.8755 2.6720 -2.7605 -0.4613 -0.8784 -2.4836 -0.8779 0.5626 -1.2686 -3.6490 -2.0407 2.0737 -2.0427 -2.1177 3.4414 -1.4078 -0.5981 1.6426 -2.1388 -1.0398 -0.6196 2.0756 -2.4614 -1.0741 2.3177 -2.5227 3.2896 -0.0247 1.1352 -1.5672 1.5417 -0.2596 -0.2573 -0.6583 1.8759 0.2956 -2.5118 -4.7871 1.4845 4.8305 5.6783 -0.0394 -4.1913 -3.8053 0.5769 5.3959 -4.9410 1.5654 3.4968 5.4686 0.7728 -3.1403 4.5778 -0.8081 -4.7435 -3.0519 -0.1885 4.5866 -4.1353 0.7310 2.6222 4.1426 0.8772 -2.5597 3.3490 -0.7063 -4.2071 1.6709 -2.9035 1.7596 -0.2946 -1.6778 1.2942 -0.4789 0.1393 -2.0288 -1.8197 3.9192 0.9860 2.2160 -3.4244 0.4578 -0.5211 -1.5289 -0.1911 0.7018 -0.3603 -2.8337 -3.2155 -0.1000 3.1448 3.1178 0.1649 -3.0648
3.2501 -1.6194 2.8243 -2.4321 3.5970 2.0402 3.1348 -3.7150 0.4789 -0.9783 4.3657 0.3595 3.1468 -1.5936 -0.3471 -0.5943 -2.5703 -0.6659 0.6768 -1.4481 -3.5344 -2.3972 1.6251 -2.1552 -2.6429 2.9881 -1.5537 -0.9135 1.4037 -2.3191 -1.0845 -0.6778 2.1455 -2.2711 -1.5337 2.5256 -2.7561 2.8542 -0.1148 1.2661 -0.9676 1.6297 -0.2871 -0.2696 -0.6588 1.7304 0.4345 -2.6336 -5.1387 0.4530 4.9994 5.5369 0.4508 -4.3356 -5.2047 0.5567 3.5525 -4.1531 -0.2540 5.5806 5.2319 1.3092 -3.3463 4.5420 -0.4957 -4.8061 -4.2750 -0.0476 2.7910 -3.1534 -0.9136 4.7591 3.9086 1.2873 -2.7510 3.3141 -0.5090 -4.2588 2.1918 -2.0704 1.8451 -0.0649 -1.5129 1.4074 -0.5604 -0.0432 -2.0586 -2.0041 3.6522 0.7286 2.8686 -2.3857 0.5404 -0.3461 -1.5203 -0.0765 0.6770 -0.4391 -2.8331 -3.2007 -0.7992 3.4194 2.9828 0.4083 -3.1786

>  <OB_ATOM_TYPES> (1slnA1)
C.3 N.pl3 O.co2 N.pl3 O.co2 O.2 O.2 C.3 C.3 C.3 C.3 C.3 N.pl3 N.3 N.am N.am C.ar C.ar C.ar C.ar C.ar C.ar C.ar C.ar C.ar C.ar C.3 C.3 C.3 C.cat C.2 C.2 C.2 C.ar C.ar

>  <ENSEMBLE_RMSD> (1slnA1)
0.000 1.474 1.485 1.525 1.633 1.677 1.711 1.729 1.878 1.979 2.014 2.051 2.143 2.152 2.251 2.303 2.313 2.365 2.380 2.395 2.427 2.482 2.540 2.694 2.694 2.749 2.784 3.139 3.242 3.405 3.707 3.719 3.730 3.864 3.963 3.978 4.191 4.207 4.223 4.242 4.263 4.264 4.303 4.307 4.358 4.426 4.560 4.633 4.693

$$$$
