
 OpenBabel03071213D

 22 23  0  0  0  0  0  0  0  0999 V2000
   33.4240   16.8360   -7.9210 C   0  0  0  0  0
   31.6900   18.0620   -9.2260 C   0  0  0  0  0
   33.6570   16.8030  -10.4010 C   0  0  0  0  0
   36.1940   12.8570   -4.2630 O   0  0  0  0  0
   30.5850   16.5000  -11.2870 O   0  0  0  0  0
   34.9120   13.8230   -5.9100 O   0  0  0  0  0
   31.3520   12.6390   -7.1800 N   0  0  0  0  0
   32.4800   12.8410   -6.5980 N   0  0  0  0  0
   31.9790    9.9540   -4.2590 C   0  0  0  0  0
   33.1870    9.9610   -3.5630 C   0  0  0  0  0
   29.8860   14.3940  -10.2410 C   0  0  0  0  0
   31.7620   10.8980   -5.2520 C   0  0  0  0  0
   30.0630   13.4290   -9.2220 C   0  0  0  0  0
   34.1700   10.9090   -3.8320 C   0  0  0  0  0
   31.9010   14.7020   -8.3110 C   0  0  0  0  0
   35.0340   12.9170   -5.0970 C   0  0  0  0  0
   30.7330   15.5000  -10.2850 C   0  0  0  0  0
   31.0460   13.5980   -8.2700 C   0  0  0  0  0
   32.7660   11.8470   -5.5330 C   0  0  0  0  0
   33.9610   11.8500   -4.8370 C   0  0  0  0  0
   31.7380   15.6370   -9.3320 C   0  0  0  0  0
   32.6560   16.8660   -9.2930 C   0  0  0  0  0
  1 22  1  0  0  0
  2 22  1  0  0  0
  3 22  1  0  0  0
  4 16  1  0  0  0
  5 17  1  0  0  0
  6 16  2  0  0  0
  7  8  1  0  0  0
  7 18  1  0  0  0
  8 19  1  0  0  0
  9 10  2  0  0  0
  9 12  1  0  0  0
 10 14  1  0  0  0
 11 13  1  0  0  0
 11 17  2  0  0  0
 12 19  2  0  0  0
 13 18  2  0  0  0
 14 20  2  0  0  0
 15 18  1  0  0  0
 15 21  2  0  0  0
 16 20  1  0  0  0
 17 21  1  0  0  0
 19 20  1  0  0  0
 21 22  1  0  0  0
M  END
>  <MOLID> (1srfA1)
1srfA1

>  <SMILES_CANONICAL> (1srfA1)
OC(=O)c1ccccc1NNc1ccc(c(c1)C(C)(C)C)O	

>  <FINGERPRINT> (1srfA1)
0000000000000000000000000000001000000000000000000000100000001000001000000100000000000001100000000000000000000001000000100000000000000001000000000000000000000000000000000000000101000000000000000000001000000000000000000010000000000000000000000000001000000000000000010100000001000001000000000000000000001000000010000100000000001000000000000000000000000100010000000000000010110000000000000000100000000000100001000100001000000000000000000000000000000000000000000000001000001000010000000000000000001000001000000000100000000000000000000000000000000000000000100000000000000000000000000000010000000001000000000001010000000000001000100000000000000000010000000000000000000000000000000000110000000010001010100010000001100000000000000000100000000000000000000110000000000000000101000000000000000100000000000000000010000000000000000000000000000000000000000000010000000000000000000000000000000000000000000000000000000000010000000000000000000000000000000000111000000000000000101100000000000000000000000000000000000000000000000000010000000010

>  <MACCS166> (1srfA1)
000000000000000000000000000000000000000000001000010110000000000001011000010100000000000000000100101000000001000110000000001110100110101100111111110011110101111110111000

>  <OB_MW> (1srfA1)
300.147

>  <OB_logP> (1srfA1)
3.9729

>  <OB_PSA> (1srfA1)
81.59

>  <OB_MR> (1srfA1)
88.0197

>  <OB_ATOMIC_CHARGES> (1srfA1)
0.0044746125 0.0044746125 0.0044746125 -0.2405038646 -0.2869080889 -0.2405038646 -0.1280623579 -0.1278434739 0.0013888804 0.0002972725 0.0430779122 0.0182699185 0.0213159614 0.0079431489 0.0169267208 0.3890609436 0.1917758548 0.088980915 0.0954292956 0.0964591304 0.0174560818 0.0220157764

>  <MCT_HBD> (1srfA1)
4

>  <MCT_HBA> (1srfA1)
5

>  <ENSEMBLE_TOTAL> (1srfA1)
50

>  <ENSEMBLE_COORDS> (1srfA1)
0.9160 3.0713 -0.6431 -0.8180 4.2973 -1.9481 1.1490 3.0383 -3.1231 3.6860 -0.9077 3.0149 -1.9230 2.7353 -4.0091 2.4040 0.0583 1.3679 -1.1560 -1.1257 0.0979 -0.0280 -0.9237 0.6799 -0.5290 -3.8107 3.0189 0.6790 -3.8037 3.7149 -2.6220 0.6293 -2.9631 -0.7460 -2.8667 2.0259 -2.4450 -0.3357 -1.9441 1.6620 -2.8557 3.4459 -0.6070 0.9373 -1.0331 2.5260 -0.8477 2.1809 -1.7750 1.7353 -3.0071 -1.4620 -0.1667 -0.9921 0.2580 -1.9177 1.7449 1.4530 -1.9147 2.4409 -0.7700 1.8723 -2.0541 0.1480 3.1013 -2.0151
1.2376 2.9807 -0.8129 -0.4765 4.3471 -1.8522 1.1274 3.0817 -3.2473 3.4554 -0.7978 2.8138 -1.9383 2.7609 -3.8917 1.9894 0.3151 1.4918 -1.1693 -1.2300 -0.1099 -0.4967 -0.9429 1.0480 -0.2423 -4.0267 3.0978 1.0118 -3.9396 3.5672 -2.6440 0.7250 -2.9118 -0.7624 -2.9749 2.2561 -2.4645 -0.3257 -1.9285 1.8264 -2.7918 3.2323 -0.4851 0.8237 -1.1901 2.2638 -0.6551 2.1807 -1.7868 1.7600 -2.9657 -1.4153 -0.2889 -1.0849 -0.0076 -1.9146 1.8945 1.3589 -1.8075 2.4388 -0.6607 1.8597 -2.0325 0.2791 3.0416 -1.9935
0.8692 2.9540 -0.1565 -0.7485 4.2985 -1.3731 1.1676 3.2737 -2.5536 3.3412 -0.4663 2.4640 -1.6417 2.8109 -3.7958 2.4958 -0.6597 0.3692 -1.2851 -1.4907 -0.3044 -0.0624 -1.8543 0.1937 -0.5228 -3.2678 3.6042 0.6126 -2.8921 4.2126 -2.3820 0.6645 -3.1282 -0.7398 -2.9202 2.2189 -2.3181 -0.4597 -2.2156 1.5954 -2.1241 3.4803 -0.6844 0.7696 -0.9459 2.4352 -0.9188 1.5610 -1.6004 1.7418 -2.9361 -1.4663 -0.4367 -1.1727 0.1454 -2.1738 1.5223 1.3815 -1.7467 2.2041 -0.7136 1.8359 -1.7710 0.1213 3.0621 -1.4774
1.4951 2.7834 -1.1052 -0.2289 4.2929 -1.9012 1.0728 2.9302 -3.5015 1.7578 0.3355 1.5269 -2.0420 2.8744 -3.7446 3.1537 -0.3743 3.1623 -1.1542 -1.2398 -0.1236 -0.5701 -0.9845 1.0888 -0.0346 -4.2105 2.8561 1.1606 -4.0168 3.4347 -2.7969 0.8877 -2.6973 -0.6194 -3.1525 2.0644 -2.5806 -0.1923 -1.7542 1.8534 -2.7600 3.2471 -0.4330 0.7697 -1.2576 2.1691 -0.5528 2.4582 -1.8697 1.8495 -2.8466 -1.4354 -0.2605 -1.0485 0.0091 -1.9734 1.8588 1.3243 -1.7728 2.4955 -0.6289 1.8307 -2.0657 0.3978 2.9361 -2.1470
1.6453 2.6390 -1.2664 -0.2476 4.1682 -1.3878 0.8455 3.3432 -3.4433 1.6589 0.3654 1.4743 -1.9620 2.8415 -3.7850 3.2894 -0.4716 2.8030 -1.1668 -1.2673 -0.1276 -0.6609 -0.9934 1.1153 -0.0992 -4.1249 3.0448 1.1413 -3.9408 3.5227 -2.6772 0.7894 -2.8406 -0.7104 -3.0934 2.2348 -2.4862 -0.2874 -1.8877 1.8489 -2.7165 3.2202 -0.4411 0.7758 -1.2072 2.1867 -0.5801 2.2816 -1.7828 1.7902 -2.9191 -1.4094 -0.2996 -1.0781 -0.0621 -1.9517 1.9102 1.2972 -1.7560 2.4508 -0.5920 1.8073 -2.0632 0.3845 2.9626 -2.0515
1.7673 2.7352 -2.2165 -0.0667 4.1544 -1.4571 0.1843 3.5848 -3.8494 2.8949 -0.5494 1.7065 -2.5231 3.0678 -3.0781 2.0234 0.2275 3.6676 -0.4268 -1.4856 -0.6567 0.4227 -1.3841 0.4108 -0.4326 -4.0448 2.9020 0.3595 -3.7046 3.9323 -2.8402 0.8798 -2.2282 -0.4204 -3.2540 1.6867 -2.3056 -0.3092 -1.5942 1.2124 -2.5387 3.8219 -0.1328 0.7267 -1.6359 2.0506 -0.5915 2.7624 -2.0338 1.9176 -2.5070 -0.9968 -0.3942 -1.2830 0.3550 -2.1543 1.5581 1.2086 -1.7978 2.6981 -0.5981 1.8596 -2.2065 0.2983 3.0548 -2.4337
1.2554 2.9912 -0.5191 -0.0587 4.0809 -2.2543 1.5501 2.2989 -2.8365 1.4816 0.5951 2.6729 -1.2004 1.9870 -4.0253 2.9312 -0.1723 1.0885 -1.9899 -0.5592 0.8612 -1.0038 -0.6813 1.8020 0.1954 -4.1886 2.2412 1.5260 -4.0134 2.3008 -2.4033 0.4362 -2.7021 -0.6781 -3.0444 2.0731 -2.6068 -0.2363 -1.4351 2.0785 -2.6788 2.1901 -0.8073 1.0745 -0.5228 1.9792 -0.3420 1.8346 -1.4321 1.3551 -2.8278 -1.8335 0.0503 -0.3695 -0.1895 -1.7922 1.9324 1.2671 -1.6199 2.0096 -0.5768 1.7124 -1.6902 0.5158 2.7466 -1.8236
1.5929 2.8377 -2.0363 -0.2301 4.2663 -2.7972 0.6046 2.4274 -4.2190 2.5170 -1.1689 4.6131 -2.3556 2.4375 -3.9329 1.9902 0.3461 3.0059 -1.1979 -0.1695 0.8298 0.0504 -0.5717 1.2068 0.2965 -4.2753 1.5589 1.3022 -4.3866 2.4418 -2.9302 0.8111 -2.3125 -0.1520 -2.9626 1.1443 -2.6329 0.1242 -1.0728 1.8871 -3.1927 3.0169 -0.5240 1.2847 -1.0120 1.9982 -0.8047 3.4151 -2.0463 1.6809 -2.8293 -1.4834 0.3643 -0.4120 0.3671 -1.8330 1.6739 1.4181 -1.9699 2.6989 -0.7496 1.9159 -2.1842 0.2778 2.8390 -2.7972
1.7455 2.4352 -1.8676 0.1685 4.1828 -2.4548 0.7527 2.4349 -4.0989 0.8650 0.3474 3.3685 -2.2725 3.0644 -3.5462 3.0515 -0.2483 3.0960 -1.2512 -1.0063 0.1065 -0.1631 -0.9735 0.9355 0.5665 -4.4535 2.0968 1.4232 -4.2179 3.1045 -3.0766 1.3330 -2.1457 0.0193 -3.3460 1.3389 -2.8196 0.2688 -1.1958 1.8077 -2.8560 3.4168 -0.4796 0.8084 -1.3285 1.8601 -0.5129 3.0547 -2.0621 2.0809 -2.6112 -1.5640 0.0002 -0.7865 0.3477 -2.0641 1.6145 1.3014 -1.8309 2.7069 -0.6842 1.8461 -2.1669 0.4638 2.7074 -2.6376
1.4068 3.1607 -1.5675 -0.7577 4.0035 -0.8107 -0.1826 3.9706 -3.2109 2.7560 -0.1206 1.8613 -2.7436 2.7483 -2.9439 3.7045 -1.9698 2.8058 0.0960 -1.6387 -1.0265 0.8463 -1.5823 0.1186 -1.2545 -2.7516 2.9892 -0.3736 -2.6911 4.0016 -2.6369 0.4276 -2.4924 -0.8489 -2.3644 1.6530 -1.9092 -0.7183 -1.9857 0.9665 -2.1982 3.7561 -0.0460 0.7404 -1.5461 2.7257 -1.3569 2.4093 -2.0649 1.6433 -2.4911 -0.6530 -0.5842 -1.5156 0.4038 -1.9334 1.3836 1.3351 -1.8293 2.5153 -0.6956 1.8350 -1.9983 -0.0741 3.2095 -1.9051
1.8434 2.1392 -2.8165 0.5976 3.9447 -1.7475 0.1401 3.3064 -4.0908 1.9609 -0.0135 3.9862 -2.3693 3.3824 -2.7089 1.5473 0.4771 1.8116 -0.7286 -1.4450 -0.4836 0.4156 -1.5401 0.2621 0.2848 -4.4298 2.6102 0.7468 -3.8794 3.7443 -2.9115 1.3367 -1.6500 0.1909 -3.6269 1.4096 -2.4931 0.0812 -1.0603 1.1641 -2.4933 3.7494 -0.2282 0.6313 -1.6595 1.5375 -0.3218 2.7352 -2.0012 2.1683 -2.1837 -1.1916 -0.2675 -1.0367 0.5295 -2.3186 1.3996 1.0709 -1.7307 2.6408 -0.5767 1.8180 -2.2026 0.4707 2.7811 -2.7088
1.9115 2.4065 -2.2138 0.4212 3.6408 -0.7155 0.1139 3.7298 -3.1644 2.3187 0.3215 3.0499 -2.4217 3.0933 -2.0838 2.1838 0.0634 0.8019 -0.2650 -1.9359 -1.0928 0.6967 -2.0997 -0.1299 -0.6639 -3.5978 3.0006 -0.1808 -2.7618 3.9332 -2.7433 0.7848 -1.6729 -0.3447 -3.3755 1.6066 -2.1947 -0.5316 -1.4144 0.6746 -1.6622 3.5383 0.0031 0.4079 -1.6774 1.8728 -0.2953 1.9274 -1.9242 1.8302 -1.8744 -0.8617 -0.7262 -1.3888 0.4194 -2.3351 1.2063 0.9831 -1.4462 2.2430 -0.4681 1.6562 -1.8826 0.4694 2.8329 -1.9966
-0.1189 3.2585 0.1410 -1.7516 4.1844 -1.4032 0.5827 3.8228 -2.1218 2.8852 -2.1804 0.3978 -1.6008 2.7182 -3.9722 3.9374 -1.7466 2.3561 -0.8263 -1.6038 -0.5684 0.2837 -1.6341 0.2285 -0.8465 -1.8877 3.7819 0.3148 -2.1270 4.4120 -1.8265 0.4006 -3.5422 -0.8566 -1.6836 2.3484 -1.6389 -0.7340 -2.6602 1.5481 -2.1455 3.6539 -0.7699 0.7850 -1.0080 2.9050 -1.9256 1.7246 -1.4642 1.6319 -3.1438 -1.0944 -0.5675 -1.4394 0.2749 -1.7319 1.6083 1.5474 -1.9489 2.3205 -0.9219 1.8655 -1.8010 -0.5626 3.2495 -1.3128
1.8222 1.7936 -0.8236 0.7330 3.6089 -2.0084 1.5083 1.6114 -3.2386 2.5833 0.2820 3.0945 -1.4338 2.6378 -3.6579 0.5905 1.0069 2.2911 -2.0714 -0.9925 0.5137 -1.2567 -1.0131 1.6178 0.8815 -4.0692 1.5782 2.0763 -3.5730 1.9358 -2.8323 1.1953 -2.4044 -0.2624 -3.1876 1.4868 -3.0060 0.2501 -1.3192 2.2062 -2.1611 2.2262 -0.6698 0.5018 -0.8162 1.3773 0.0969 2.5018 -1.6330 1.7618 -2.6193 -1.9689 -0.0901 -0.5283 -0.1682 -1.8634 1.7424 1.1450 -1.3314 2.1595 -0.4817 1.4352 -1.7721 0.8607 2.0996 -1.9600
1.8589 1.7874 -0.8319 0.7463 3.6297 -1.9547 1.5132 1.6669 -3.2461 2.6068 0.4059 2.7037 -1.4011 2.6616 -3.6447 0.4191 0.9529 2.4701 -2.0440 -1.0615 0.4400 -1.2896 -1.0835 1.5836 0.9079 -4.0944 1.6778 2.0858 -3.5628 2.0407 -2.8046 1.2088 -2.4103 -0.2529 -3.2407 1.5442 -2.9792 0.2429 -1.3446 2.1800 -2.1418 2.2983 -0.6494 0.5085 -0.8110 1.3065 0.1138 2.4515 -1.6057 1.7800 -2.6117 -1.9455 -0.1064 -0.5536 -0.1858 -1.9059 1.7467 1.1113 -1.3312 2.1577 -0.4589 1.4499 -1.7594 0.8812 2.1199 -1.9462
-0.5552 4.6719 -1.1627 -2.4186 4.3472 -2.6852 -0.0965 4.2289 -3.5182 3.7300 -2.4879 3.3065 -2.0510 1.9377 -4.2619 3.3358 -2.2712 1.0768 0.2189 0.0494 0.4486 0.7193 -1.1963 0.6947 -1.1624 -2.9744 3.3791 -0.1632 -3.5468 4.0702 -1.5174 0.1087 -2.8598 -0.8602 -2.1665 2.2160 -0.9240 -0.4022 -1.6426 1.2079 -3.3553 3.6420 -0.4079 1.8612 -1.0128 2.9266 -2.4273 2.2168 -1.5382 1.4310 -3.0928 -0.3592 0.4310 -0.7450 0.4121 -1.9317 1.8246 1.4991 -2.5572 2.5956 -0.9805 2.3798 -2.1215 -1.0152 3.8700 -2.3683
-0.2327 2.8021 0.6118 -1.4812 4.0586 -1.0445 0.8743 3.4514 -1.4658 3.8567 -1.7528 2.1021 -1.4092 2.8046 -3.6418 2.8679 -2.1233 0.0985 -1.0111 -1.9220 -0.7381 0.0878 -2.1415 0.0502 -0.8078 -1.2528 3.5654 0.3980 -1.2237 4.1526 -1.8183 0.4791 -3.4656 -0.9116 -1.5623 2.1575 -1.7482 -0.7574 -2.7115 1.5813 -1.4564 3.3548 -0.8081 0.5024 -0.8932 2.7763 -1.8897 1.2937 -1.3702 1.6294 -2.9327 -1.2050 -0.7718 -1.4791 0.1752 -1.8026 1.3913 1.4994 -1.7162 2.0346 -0.8726 1.6775 -1.5537 -0.4410 2.9673 -0.8865
0.9863 3.4658 -2.0104 0.8938 2.5125 0.2190 -0.9666 3.8906 -0.5586 3.3255 -0.3509 2.0044 -1.4302 2.8779 -3.5035 2.5323 -1.0664 0.0043 -1.1461 -1.9067 -0.6856 -0.0189 -2.2434 0.0199 -0.7979 -2.4501 3.6602 0.3083 -1.9239 4.2088 -2.0068 0.5898 -3.3112 -0.8977 -2.5663 2.2219 -1.9468 -0.6608 -2.5810 1.3779 -1.4566 3.3531 -0.6909 0.4767 -0.8750 2.4160 -0.9779 1.2169 -1.3873 1.6815 -2.8314 -1.2866 -0.7394 -1.4092 0.0777 -2.1227 1.3977 1.2813 -1.5230 2.0093 -0.6671 1.6420 -1.5542 0.0439 2.8511 -0.9953
1.7873 1.8838 -2.8917 0.5498 3.9724 -2.6959 0.1434 2.4459 -4.5946 1.5533 -0.7395 4.8986 -2.3544 3.3103 -3.2647 1.1493 0.5155 3.0504 -1.0686 -0.9527 0.0648 -0.0553 -0.9226 0.9792 1.1328 -4.4030 1.6444 1.7507 -4.2493 2.8265 -3.0270 1.6877 -1.6787 0.5144 -3.2613 1.0032 -2.6993 0.5837 -0.8006 1.7958 -2.9411 3.4455 -0.4033 0.7965 -1.4952 1.2882 -0.5767 3.5794 -2.0642 2.2796 -2.4046 -1.4321 0.1373 -0.6997 0.5017 -2.0381 1.5790 1.1813 -1.8828 2.8795 -0.6680 1.8353 -2.3175 0.4242 2.5191 -3.1072
1.9143 1.2100 -1.4595 0.8298 3.3940 -1.6136 1.1432 1.9947 -3.6206 0.5333 0.4191 3.5865 -1.6471 2.6438 -3.6454 2.6462 0.5379 2.7520 -2.0732 -0.7802 0.7158 -1.0782 -0.8255 1.6610 0.9843 -3.8927 1.1247 2.1449 -3.5487 1.7059 -2.9757 1.2313 -2.2892 -0.1194 -2.9570 1.1037 -3.1028 0.3255 -1.1632 2.2838 -2.2345 2.2991 -0.7303 0.5177 -0.8444 1.5748 -0.0398 2.8562 -1.7757 1.7410 -2.6194 -2.0231 -0.0033 -0.4268 -0.0189 -1.7206 1.6393 1.2629 -1.3557 2.2635 -0.5658 1.3666 -1.8786 0.7927 1.9762 -2.1470
-0.0625 4.6746 -1.9522 -2.4382 4.2505 -2.3318 -0.7912 3.9232 -4.1401 3.3746 -2.4950 3.9401 -2.4106 1.5683 -3.9733 3.6022 -2.0984 1.7070 0.4603 0.4378 0.6386 1.1013 -0.7032 1.0372 -1.3089 -3.0506 2.6716 -0.4719 -3.8664 3.3332 -1.4996 -0.0424 -2.5021 -0.7772 -1.9456 1.9009 -0.7477 -0.3551 -1.3066 0.9543 -3.6135 3.2953 -0.2073 1.9795 -1.1029 2.9068 -2.3577 2.6763 -1.5973 1.2298 -2.9195 -0.1298 0.6136 -0.6000 0.5469 -1.6730 1.8592 1.4415 -2.5427 2.6388 -0.9015 2.3135 -2.2144 -1.0440 3.7529 -2.6551
1.4775 2.9237 -3.4348 -0.4127 4.4403 -3.3252 -0.4328 2.5457 -4.9087 2.2903 -1.3624 4.9487 -2.8973 3.0123 -3.0008 1.5254 0.1718 3.4653 0.2554 -0.5558 -0.1394 0.2296 -0.8039 1.2038 0.2943 -4.4964 1.7231 0.9894 -4.5964 2.8670 -2.7229 1.3614 -1.3152 0.0197 -3.1903 1.1656 -1.9199 0.4159 -0.5684 1.4423 -3.3957 3.5367 0.0081 1.1885 -1.7824 1.6709 -0.9940 3.8000 -2.1477 2.1537 -2.2349 -0.5903 0.3280 -0.7743 0.4640 -2.0543 1.7491 1.1982 -2.1722 3.0240 -0.7027 2.0968 -2.4858 -0.0390 2.9836 -3.5133
-1.3435 4.4756 -0.6741 -2.3920 4.3201 -2.8544 0.0593 4.5501 -2.6746 3.1127 -1.5581 1.1735 -1.2236 2.2392 -4.4632 3.3632 -3.7933 1.5491 -0.3220 -0.2087 0.4362 0.2442 -1.4249 0.6883 -0.7960 -2.6136 4.0680 0.3334 -3.1933 4.5071 -0.9709 0.2464 -3.2127 -0.8297 -2.0089 2.7528 -0.7318 -0.4129 -1.9460 1.5167 -3.1909 3.6695 -0.7005 1.7507 -0.8983 2.7337 -2.7549 1.6775 -1.0819 1.5845 -3.2647 -0.5587 0.3057 -0.8187 0.2568 -1.9933 1.9488 1.4869 -2.6159 2.4524 -0.9903 2.3982 -2.0473 -1.1662 3.8983 -2.0691
1.8530 1.4421 -2.5747 0.8083 3.6439 -2.5748 0.4192 2.0698 -4.4366 1.9471 -0.6778 4.7475 -2.0827 3.2399 -3.3551 0.1813 0.2697 3.6879 -1.4956 -0.9354 0.2646 -0.6266 -0.8971 1.3186 1.6039 -3.8833 1.0301 2.3321 -3.7805 2.1529 -3.0443 1.7540 -1.7856 0.5970 -2.8868 0.7368 -2.9000 0.6720 -0.8340 2.1095 -2.6657 3.0493 -0.5437 0.6344 -1.3317 1.0254 -0.6109 3.7552 -1.9700 2.2187 -2.4443 -1.6930 0.1236 -0.5962 0.3552 -1.8434 1.5623 1.1800 -1.7254 2.7815 -0.6364 1.6487 -2.2189 0.5800 2.1892 -2.9349
-1.6454 4.5847 -1.4850 -2.4951 3.5580 -3.5087 -0.0994 4.1211 -3.3226 3.6303 -3.1324 2.5962 -1.0637 1.1944 -4.2182 3.2818 -1.1610 1.5252 -0.1348 0.7467 1.2421 0.6951 -0.1214 1.8989 -1.2802 -3.1949 2.6667 -0.3215 -4.1344 2.6686 -0.6708 -0.1865 -2.3388 -0.9245 -1.8100 2.4470 -0.4027 -0.3192 -0.9227 1.0589 -3.7506 2.4577 -0.6640 2.0599 -0.7083 2.8431 -2.1591 2.0757 -0.9297 1.0230 -2.8622 -0.3521 0.7652 -0.1221 0.3528 -1.4253 2.2243 1.4024 -2.4598 2.2738 -0.9793 2.2185 -2.0127 -1.3014 3.5832 -2.5749
-0.3773 3.1275 0.3532 -2.0475 4.0248 -1.1617 0.3151 3.8850 -1.8686 3.6787 -2.9614 2.6543 -1.8008 2.7944 -3.7961 2.6127 -3.5036 0.7249 -0.6208 -1.7336 -0.7690 0.4586 -1.8239 0.0742 -0.4463 -0.4075 3.4206 0.5485 -0.8768 4.1892 -1.6998 0.4363 -3.6077 -0.5005 -0.7675 2.0208 -1.3623 -0.7480 -2.8404 1.5740 -1.7063 3.5978 -0.7267 0.6918 -1.0259 2.6394 -2.8968 1.7840 -1.5410 1.6573 -3.0699 -0.8894 -0.6457 -1.5821 0.4450 -1.5363 1.4332 1.5592 -2.0082 2.2834 -1.0282 1.8171 -1.7055 -0.7906 3.1816 -1.1086
1.8376 1.2198 -2.1118 0.8136 3.4366 -2.1793 0.6869 1.9256 -4.1272 0.2590 -0.6327 4.4424 -1.9716 2.8402 -3.5860 2.2300 0.2843 3.7380 -1.8275 -0.7311 0.6787 -0.7981 -0.7513 1.5826 1.5354 -3.5095 0.5945 2.4511 -3.4416 1.5754 -3.1164 1.4785 -2.0266 0.4103 -2.5966 0.5927 -3.0874 0.5630 -0.9042 2.3177 -2.4397 2.6141 -0.6852 0.6080 -1.0175 1.3323 -0.5351 3.6256 -1.9688 1.9144 -2.5717 -1.9156 0.1471 -0.3855 0.2566 -1.6504 1.5467 1.2774 -1.5862 2.5986 -0.6693 1.4599 -2.0650 0.6321 1.9968 -2.6145
1.1405 3.5771 -3.2999 -1.1294 4.4285 -3.3637 -0.4548 2.5778 -4.8518 2.1366 -0.2495 3.6227 -3.0554 2.3042 -3.1572 2.5407 -2.0437 4.9380 0.7634 0.0595 0.2075 0.5747 -0.4309 1.4717 -0.2691 -4.0589 1.3271 0.3945 -4.5415 2.3888 -2.5354 0.8688 -1.3535 -0.2064 -2.6462 1.0260 -1.5528 0.2691 -0.4790 1.1606 -3.6385 3.2200 0.1520 1.5447 -1.6016 2.0272 -1.5578 3.9392 -2.1475 1.7514 -2.2873 -0.2458 0.5905 -0.5745 0.5220 -1.7822 1.7695 1.2322 -2.3203 2.9443 -0.7381 2.1409 -2.4264 -0.3095 3.1571 -3.4600
-1.4904 4.5796 -1.4937 -2.7985 3.2413 -3.0604 -0.5396 4.0419 -3.6546 3.4958 -2.9898 1.6069 -0.3975 1.2883 -4.1780 2.9664 -0.7882 1.5070 -0.4848 0.6334 1.3421 0.3502 -0.0973 2.1434 -1.2271 -3.3768 2.9302 -0.2243 -4.2293 2.6659 0.0326 -0.0682 -2.2911 -1.0106 -1.9519 2.7995 0.0182 -0.2595 -0.8570 1.0687 -3.7124 2.2708 -0.8441 1.9741 -0.6282 2.6391 -1.9457 1.7213 -0.3849 1.0942 -2.8191 -0.3822 0.7288 -0.0320 0.1735 -1.4486 2.3878 1.2830 -2.3875 2.1400 -0.8462 2.1938 -1.9628 -1.3973 3.4798 -2.5379
-1.5246 4.5960 -1.3348 -2.6994 3.3915 -3.1047 -0.3945 4.2063 -3.4453 2.7047 -0.9519 1.0010 -0.4140 1.4413 -4.1898 3.5632 -2.9580 1.6044 -0.5180 0.5334 1.2948 0.3697 -0.1516 2.0803 -1.1688 -3.3678 3.1573 -0.2072 -4.2513 2.8460 -0.0365 -0.0207 -2.3687 -0.9416 -1.9552 2.9388 -0.0567 -0.2768 -0.9438 1.0510 -3.7791 2.3077 -0.8261 1.9756 -0.6107 2.6248 -2.1741 1.5704 -0.4109 1.1795 -2.8418 -0.4091 0.6900 -0.0723 0.2087 -1.4896 2.4011 1.2679 -2.4661 2.0917 -0.8360 2.2512 -1.9334 -1.3466 3.5773 -2.4483
1.7649 1.9812 -1.8561 0.3967 3.6629 -2.9533 0.7715 1.4733 -4.0252 1.2713 -2.0484 4.9942 -2.1210 2.4665 -3.8535 0.6655 -0.0091 4.1787 -1.6946 -0.5026 0.8297 -0.5867 -0.5531 1.6277 1.9175 -2.9455 0.2132 2.6836 -3.1860 1.2898 -3.1518 1.2983 -2.0742 0.7807 -2.0559 0.3270 -3.0472 0.5452 -0.8430 2.3719 -2.5448 2.5513 -0.6685 0.9036 -0.9055 1.0362 -1.1588 3.9998 -2.0497 1.7990 -2.6555 -1.8492 0.3283 -0.2662 0.4382 -1.4779 1.5010 1.2773 -1.7691 2.6744 -0.7258 1.6199 -2.0493 0.5194 2.1728 -2.7049
-0.3313 4.5426 -1.2455 -2.6687 3.8391 -1.3375 -1.3938 4.2662 -3.4079 3.3263 -3.3651 3.2948 -2.7061 1.6948 -3.5996 2.8938 -3.6091 1.0719 1.3314 -0.0415 -0.2180 1.3304 -1.2468 0.4247 -1.0902 -1.3031 3.2739 -0.5848 -2.2963 4.0243 -1.2350 -0.0314 -2.9305 -0.4379 -0.9310 2.0346 -0.1881 -0.5019 -2.0490 0.6377 -2.9554 3.6107 0.0102 1.7351 -1.1840 2.5591 -3.2358 2.1851 -1.6083 1.2581 -2.8989 0.3926 0.3298 -1.1605 0.7211 -1.5049 1.6416 1.2917 -2.5471 2.5061 -0.9289 2.2223 -2.0252 -1.3211 3.6812 -2.0109
-2.0159 3.7765 -0.1820 -2.0330 4.0338 -2.6012 0.0550 4.3572 -1.3310 3.3164 -3.2443 1.1951 0.2357 2.5027 -3.7665 1.7771 -2.6946 -0.3768 -1.5243 -1.1404 0.0273 -0.7675 -2.1007 0.6349 -0.0361 -1.1932 4.1706 1.2591 -1.5312 4.2738 0.0584 0.2666 -3.0295 -0.7324 -1.4020 2.9203 -0.4089 -0.6945 -2.0582 1.9573 -2.0578 3.1190 -1.2379 1.1345 -0.7270 2.1280 -2.7316 0.7925 -0.1552 1.5773 -2.8305 -1.0306 -0.2887 -0.9347 -0.1068 -1.9018 1.8321 1.3205 -2.2511 1.9460 -0.8566 2.0619 -1.6318 -1.2023 3.5215 -1.4423
-2.1993 3.7489 -0.3141 -1.8443 4.1309 -2.6804 0.0446 4.3077 -1.1023 3.4137 -2.9670 1.1208 0.2675 2.5171 -3.7428 1.6823 -2.9437 -0.3416 -1.5300 -1.1431 0.0251 -0.7825 -2.1051 0.6436 -0.0277 -1.2147 4.1784 1.2680 -1.5529 4.2721 0.0594 0.2754 -3.0267 -0.7298 -1.4147 2.9300 -0.4120 -0.6902 -2.0600 1.9575 -2.0825 3.1140 -1.2365 1.1375 -0.7251 2.1189 -2.7487 0.7825 -0.1566 1.5857 -2.8275 -1.0269 -0.2877 -0.9312 -0.1079 -1.8994 1.8328 1.3226 -2.2461 1.9354 -0.8740 2.0654 -1.6387 -1.2072 3.5274 -1.4443
0.7572 2.5135 -4.4066 -0.3448 4.3001 -3.1553 -1.6456 2.7739 -4.5935 2.9475 -1.0180 3.4344 -2.9286 2.8447 -2.0544 1.1170 -0.5126 4.7020 1.2206 -0.4937 -0.4515 1.5143 -0.9217 0.8165 -0.4738 -4.0200 1.4963 -0.4261 -4.0739 2.8378 -2.1043 1.2016 -0.5707 0.2219 -2.9623 0.7915 -1.0297 0.3400 -0.1345 0.3321 -3.0790 3.5696 0.3057 1.1695 -1.9556 1.6429 -1.1129 3.7780 -1.9419 1.9779 -1.6534 0.1554 0.3251 -0.7774 0.8972 -1.9917 1.4477 0.9613 -2.0881 2.9109 -0.6876 1.9637 -2.4165 -0.4907 2.8640 -3.6152
-0.7945 4.3887 -0.6789 -2.9682 3.6129 -1.4930 -1.2834 4.5275 -3.0491 2.8311 -4.4143 2.6573 -2.0769 2.0232 -4.1709 2.6818 -3.3832 0.6453 1.0535 -0.1397 -0.1426 0.8834 -1.3619 0.4242 -0.5648 -1.0236 3.8352 0.0801 -2.0046 4.4872 -0.8963 0.1756 -3.2934 -0.3126 -0.8191 2.4261 -0.0900 -0.4080 -2.2461 1.0338 -2.8365 3.7797 -0.2554 1.6666 -1.0374 2.3223 -3.4901 1.8084 -1.3063 1.4504 -3.1902 0.2377 0.3093 -1.1539 0.5954 -1.5612 1.7557 1.2925 -2.6411 2.4710 -0.9719 2.2630 -2.0128 -1.4913 3.6661 -1.8217
-1.2155 4.1950 -0.3877 -2.9463 3.8224 -2.0434 -0.7156 4.6031 -2.7469 2.7061 -4.5348 2.5801 -2.1272 2.0470 -4.1359 2.5240 -3.5176 0.5634 1.0534 -0.1669 -0.1806 0.8718 -1.3752 0.4102 -0.3776 -0.8998 3.8843 0.2272 -1.9186 4.5167 -1.0185 0.1611 -3.2497 -0.1866 -0.7315 2.4604 -0.1995 -0.4345 -2.2203 1.0826 -2.8250 3.7738 -0.2074 1.6755 -1.0617 2.2201 -3.5866 1.7453 -1.3679 1.4545 -3.1578 0.2116 0.2931 -1.1638 0.6282 -1.5461 1.7549 1.2839 -2.6651 2.4498 -0.9885 2.2645 -1.9906 -1.4582 3.6857 -1.8007
-0.3852 3.9748 -3.5415 -2.5214 2.7472 -3.7007 -0.4770 1.8202 -4.6600 2.3723 -0.8147 4.0692 -1.6356 3.8233 -0.9295 2.7632 -0.4225 1.8709 0.6337 -1.2581 -0.9512 1.2959 -1.9204 0.0487 -1.0975 -3.7814 2.2157 -0.7550 -3.3395 3.4361 -0.8349 1.9555 0.2812 -0.3569 -3.3302 1.0570 -0.2399 0.6376 0.2936 0.3593 -2.4267 3.5828 -0.2120 0.6843 -2.1076 2.1431 -1.0064 2.7468 -1.0784 2.5690 -0.8876 0.0890 0.0088 -0.8533 0.6640 -2.4506 1.1627 1.0558 -1.9954 2.5115 -0.7535 1.9214 -2.1629 -1.0290 2.6038 -3.4818
-0.3816 4.5559 -1.4339 -2.6868 3.7304 -1.2548 -1.6580 4.1564 -3.4499 2.7331 -3.6542 1.1756 -2.5774 1.5480 -3.7449 3.3946 -3.3163 3.3337 1.4232 0.0926 -0.1610 1.5157 -1.0887 0.5294 -1.2046 -1.3383 3.0892 -0.7383 -2.3188 3.8797 -1.1351 -0.1145 -2.8803 -0.4159 -0.8871 1.9610 -0.0864 -0.5119 -1.9645 0.5569 -2.9074 3.6045 0.0204 1.7643 -1.2013 2.5925 -3.1582 2.4261 -1.5614 1.1594 -2.9065 0.4673 0.3805 -1.1191 0.7946 -1.4155 1.6695 1.2915 -2.4774 2.5607 -0.9390 2.1817 -2.0573 -1.4053 3.6196 -2.0558
-2.9796 3.7202 -1.1775 -2.5381 3.6049 -3.5623 -0.9925 4.8247 -2.0713 3.4627 -3.3856 1.5345 0.1978 2.7440 -4.0581 1.9049 -2.9843 -0.0665 -0.7126 -0.3132 0.4964 -0.3597 -1.5943 0.8076 -0.2202 -2.0704 4.5076 0.9510 -2.7104 4.6537 0.6931 0.8075 -2.7868 -0.6831 -1.7164 3.1818 0.4794 -0.0066 -1.6059 1.7386 -3.0385 3.4845 -1.1913 1.5722 -0.9066 2.2270 -3.0225 1.1113 -0.0247 1.9277 -2.9761 -0.4396 0.3448 -0.6840 0.0550 -1.9672 2.0767 1.3383 -2.6738 2.2494 -1.0409 2.3436 -2.0046 -1.8658 3.5937 -2.2039
-2.8904 3.5703 -0.9899 -2.4534 3.2964 -3.3799 -0.9823 4.6951 -1.9763 3.3747 -3.2667 1.3667 0.7614 2.9075 -3.3693 1.8387 -2.8764 -0.2516 -1.2925 -0.9873 0.0060 -0.6786 -2.0488 0.6015 -0.2003 -1.4929 4.2511 1.0616 -1.9169 4.4240 1.0220 0.8151 -2.3023 -0.7999 -1.5507 2.9363 0.5098 -0.2107 -1.4206 1.8235 -2.3841 3.2850 -1.3756 1.2070 -0.9616 2.1577 -2.8626 0.9273 0.3283 1.9508 -2.4850 -0.6581 -0.0413 -0.7697 -0.1105 -1.9875 1.8594 1.2856 -2.4192 2.0492 -0.9352 2.1900 -1.7755 -1.7866 3.4128 -2.0248
-0.4028 4.1755 -0.7781 -2.6042 3.2168 -0.3687 -1.9673 3.7401 -2.6505 3.3808 -2.7449 1.3863 0.8697 2.6927 -3.0450 1.7296 -3.3885 -0.0255 -1.4740 -1.6355 -0.4717 -0.8253 -2.3816 0.4791 -0.3528 -0.3970 3.5897 0.9460 -0.6069 3.8558 0.8498 0.3819 -2.5602 -0.9612 -1.0452 2.4503 0.2293 -0.7547 -1.9219 1.7375 -1.4302 2.9646 -1.3881 0.7428 -0.9495 2.0901 -2.7828 0.9727 0.3336 1.6103 -2.3921 -0.8654 -0.6002 -1.1531 -0.2486 -1.8263 1.6093 1.1916 -2.0087 1.8747 -0.8371 1.8323 -1.5299 -1.4313 3.2103 -1.3362
1.2443 1.7056 -4.1840 0.2473 3.8947 -3.8836 -1.0413 2.0790 -4.9605 -0.1128 -0.0280 3.3667 -2.2846 3.7629 -2.5137 0.6196 -1.1490 5.1905 0.1027 -0.5760 -0.0454 -0.3121 -1.2911 1.0303 1.7887 -4.3126 1.4732 2.1128 -4.2305 2.7733 -2.1420 2.3361 -0.6340 0.9500 -3.2941 0.8866 -1.5351 1.2052 0.0329 1.6435 -3.1115 3.5666 -0.1305 0.9009 -1.8959 0.4553 -1.0904 3.9798 -1.7167 2.7019 -1.8549 -0.5706 0.4909 -0.5786 0.4930 -2.2469 1.6075 0.8754 -2.1457 3.0231 -0.6249 1.9856 -2.5240 -0.0620 2.4128 -3.8560
-0.8381 1.3759 -4.7479 -0.5566 3.6487 -3.9164 -2.7100 2.4712 -3.6480 3.0718 -1.0597 2.8035 -1.7736 3.7130 -1.1566 1.3907 0.2222 3.6693 1.0376 -1.0730 -0.8205 1.5476 -1.6954 0.2872 -0.9021 -3.9119 2.0344 -0.7790 -3.4933 3.3055 -0.5989 2.1399 0.1595 -0.0906 -3.3140 0.9918 0.1556 0.9119 0.2596 0.1730 -2.4489 3.6294 -0.0341 0.6611 -2.1257 1.7805 -0.7844 3.0988 -1.0404 2.5580 -1.0367 0.4224 0.1659 -0.8317 0.7760 -2.3122 1.2582 0.9164 -1.8903 2.6571 -0.7455 1.8032 -2.2610 -1.2029 2.3123 -3.6097
-1.3583 1.3911 -4.6174 -0.7635 3.6462 -3.9272 -2.9326 2.6687 -3.2648 2.0222 -0.1462 3.7115 -1.3311 3.9399 -1.0404 3.2567 -1.0864 2.0453 0.6590 -1.2492 -0.9314 1.2658 -1.9288 0.0882 -1.1058 -3.6849 2.3746 -0.6646 -3.2792 3.5769 -0.1982 2.2302 0.1379 -0.4343 -3.2373 1.1708 0.3383 0.8879 0.1802 0.4822 -2.3975 3.6621 -0.3431 0.6016 -2.1078 2.2395 -1.0414 2.7190 -0.7703 2.6876 -0.9872 0.2608 0.0732 -0.8917 0.6073 -2.3782 1.2202 1.0709 -1.9318 2.5433 -0.8419 1.8547 -2.1934 -1.4591 2.3798 -3.4687
-1.2199 4.1919 -0.3488 -2.7587 3.9376 -2.2345 -0.4294 4.6697 -2.5864 1.0998 -3.8897 0.3733 -0.6840 2.5246 -4.3687 1.7890 -5.0337 2.1975 -0.8376 -0.7558 0.1032 0.2569 -1.4170 0.5680 1.1155 -0.4267 4.0534 1.6192 -1.5730 4.5384 -0.4053 0.3846 -3.4110 0.6420 -0.3750 2.6870 -0.4759 -0.4882 -2.2611 1.6925 -2.7419 3.6863 -1.0164 1.4318 -0.9107 1.4049 -3.9910 1.6861 -0.6458 1.6985 -3.2728 -0.7773 0.0047 -1.0439 0.6624 -1.4621 1.8839 1.2435 -2.7070 2.4157 -0.9520 2.2812 -1.9599 -1.3231 3.7366 -1.7949
-3.6697 1.9699 -2.6179 -2.1233 1.5887 -4.4657 -2.3622 3.8315 -3.4671 3.8096 -2.5934 2.5573 0.4348 3.0996 -3.6749 2.9884 -0.6526 1.7203 -0.6578 0.2285 0.9676 0.2212 -0.3092 1.8711 -0.9623 -3.6707 2.9897 0.1904 -4.3551 3.0624 1.2043 2.1330 -1.6579 -0.9470 -2.2775 2.5953 0.9387 1.3948 -0.4419 1.4385 -3.6829 2.7710 -1.3840 1.3189 -1.0679 2.8012 -1.7673 2.1832 0.2017 2.4221 -2.5028 -0.3066 0.9723 -0.1435 0.1997 -1.6345 2.2783 1.4672 -2.3819 2.4155 -1.1787 2.0193 -2.2071 -2.3041 2.3465 -3.1653
-2.6171 0.9745 -4.0162 -1.2245 2.8506 -4.6638 -3.1069 3.1813 -3.0946 2.7185 -0.5573 1.6462 -0.1722 4.2518 -2.3581 3.3594 -1.3246 3.6745 -0.3755 -0.7992 -0.0853 0.6129 -1.6071 0.3855 -0.8661 -3.8950 2.9162 -0.0005 -3.7761 3.9351 0.6653 2.7217 -0.7568 -0.6251 -3.1690 1.6895 0.6369 1.4073 -0.1458 1.1419 -2.8960 3.8055 -1.1018 0.8016 -1.6894 2.5723 -1.3392 2.7375 -0.1535 3.0046 -1.7848 -0.2063 0.4603 -0.6021 0.4362 -2.3438 1.5412 1.3620 -2.1950 2.6750 -1.0761 1.9954 -2.3148 -1.9798 2.2532 -3.4946
0.1303 0.5962 -4.4718 0.7432 2.9085 -4.0885 -1.5959 2.3216 -4.6041 1.2276 -0.8755 4.8989 -0.8457 4.1495 -2.0509 -0.2704 0.0766 3.4882 -1.2202 -0.9855 0.0114 -0.9277 -1.4517 1.2581 1.8214 -3.9623 1.1150 2.5064 -3.6707 2.2321 -1.0849 2.7348 -0.1728 0.6386 -3.1993 0.7813 -1.1670 1.4049 0.3899 2.0671 -2.5814 3.0791 -0.7925 0.5178 -1.8162 0.5619 -0.7865 3.7218 -0.8849 2.8965 -1.4916 -1.0454 0.3181 -0.3978 0.2076 -2.1800 1.5565 0.9625 -1.8677 2.7822 -0.6754 1.7418 -2.3750 -0.3564 1.8944 -3.8458
-3.5378 2.4256 -2.4401 -1.8773 3.3832 -3.9374 -2.1685 4.2832 -1.6577 3.0195 -1.5166 0.7909 0.6642 3.6867 -2.4521 3.1192 -3.6989 1.4650 -0.8530 -1.2654 -0.4179 -0.0924 -2.1686 0.2794 -0.8053 -1.9922 3.9452 0.4372 -2.0203 4.4570 1.2807 1.5810 -1.5692 -1.0009 -2.0691 2.5099 0.9033 0.2868 -1.0461 1.5744 -2.1846 3.5732 -1.3984 0.8537 -1.4559 2.5862 -2.6012 1.4706 0.3361 2.4319 -2.0001 -0.3916 -0.0773 -0.9547 0.0440 -2.1632 1.6579 1.3852 -2.2556 2.2429 -1.0848 2.0645 -1.9712 -2.1399 3.0163 -2.4897

>  <OB_ATOM_TYPES> (1srfA1)
C.3 C.3 C.3 O.co2 O.3 O.co2 N.pl3 N.pl3 C.ar C.ar C.ar C.ar C.ar C.ar C.ar C.2 C.ar C.ar C.ar C.ar C.ar C.3

>  <ENSEMBLE_RMSD> (1srfA1)
0.000 0.290 0.615 0.830 0.837 0.981 1.033 1.094 1.148 1.189 1.196 1.253 1.311 1.327 1.336 1.352 1.417 1.458 1.495 1.529 1.529 1.559 1.616 1.691 1.718 1.728 1.763 1.769 1.822 1.884 1.896 1.963 1.976 1.998 2.006 2.058 2.077 2.078 2.108 2.169 2.255 2.296 2.310 2.357 2.368 2.377 2.392 2.441 2.446 2.467

$$$$
