
 OpenBabel03071213D

 19 20  0  0  0  0  0  0  0  0999 V2000
   32.8480   17.7280   -8.9480 C   0  0  0  0  0
   36.8220   13.0410   -4.2150 O   0  0  0  0  0
   30.4180   17.4680  -10.4760 O   0  0  0  0  0
   35.4960   14.1610   -5.7470 O   0  0  0  0  0
   32.6300   10.1870   -4.2640 C   0  0  0  0  0
   33.8790   10.1440   -3.6300 C   0  0  0  0  0
   32.3580   11.2070   -5.1810 C   0  0  0  0  0
   34.8660   11.0850   -3.9010 C   0  0  0  0  0
   30.0220   15.2040   -9.6590 C   0  0  0  0  0
   30.5500   14.0100   -8.7750 C   0  0  0  0  0
   32.4780   15.3510   -8.1450 C   0  0  0  0  0
   32.1540   13.0140   -7.2740 N   0  0  0  0  0
   33.0450   13.2660   -6.3890 N   0  0  0  0  0
   32.0550   16.4220   -8.9240 C   0  0  0  0  0
   35.6590   13.1820   -5.0410 C   0  0  0  0  0
   30.8620   16.2980   -9.6430 C   0  0  0  0  0
   31.7400   14.1650   -8.0990 C   0  0  0  0  0
   33.3510   12.1830   -5.4430 C   0  0  0  0  0
   34.5890   12.1050   -4.8280 C   0  0  0  0  0
  1 14  1  0  0  0
  2 15  1  0  0  0
  3 16  1  0  0  0
  4 15  2  0  0  0
  5  6  2  0  0  0
  5  7  1  0  0  0
  6  8  1  0  0  0
  7 18  2  0  0  0
  8 19  2  0  0  0
  9 10  1  0  0  0
  9 16  2  0  0  0
 10 17  2  0  0  0
 11 14  2  0  0  0
 11 17  1  0  0  0
 12 13  2  0  0  0
 12 17  1  0  0  0
 13 18  1  0  0  0
 14 16  1  0  0  0
 15 19  1  0  0  0
 18 19  1  0  0  0
M  END
>  <MOLID> (1srgA1)
1srgA1

>  <SMILES_CANONICAL> (1srgA1)
OC(=O)c1ccccc1/N=N/c1ccc(c(c1)C)O	

>  <FINGERPRINT> (1srgA1)
0000000000000000000000000000001000000000000000000000100000001000011000000000000000000001000000000000000000000001000000100000000000000000000000000000000000010000000000000000000101000000000000000000001000000000000000000000000000000000000000000000000000000000000000000000000000000011100000000000000000000100000010000100000000000000000000000000000100000100010000000000000010010000000000000000000000000000100000000000001000001000000000000000000000000000000000000000001000000000010100000000000000001010001000000000100000000000000000001000000000000000000000101000000000000000000000000000000000000000000000000000000000000000000000100000000000000000010000000000000000000000000000000000100000000010000010100010000000100000000000000000000000000010000000000100000000100000000001000000000000000101000000000100000010000101000000000000000000100000100000000000010000000000000000000000000000000000000000000000000000000000010100000000000000000000000000000000011000000000000000001100000000000000000000001000000000000000000000000000000000000000

>  <MACCS166> (1srgA1)
000000000000000000000000000000000000000000001000010100000000000000000000000100000000000000000100101000000001000010000010001110100110101100111111110011010101111110111000

>  <OB_MW> (1srgA1)
256.085

>  <OB_logP> (1srgA1)
3.8142

>  <OB_PSA> (1srgA1)
82.25

>  <OB_MR> (1srgA1)
71.0083

>  <OB_ATOMIC_CHARGES> (1srgA1)
0.0344304978 -0.2404961957 -0.2869074977 -0.2404961957 0.001608321 0.0003110025 0.0211219037 0.0081598622 0.0432976731 0.0241668993 0.0198088008 -0.1480061886 -0.1477863808 0.0186221891 0.3892684599 0.1918197375 0.1027705227 0.1092130194 0.0990935696

>  <MCT_HBD> (1srgA1)
2

>  <MCT_HBA> (1srgA1)
5

>  <ENSEMBLE_TOTAL> (1srgA1)
3

>  <ENSEMBLE_COORDS> (1srgA1)
-0.0900 4.0322 -2.1805 3.8840 -0.6548 2.5525 -2.5200 3.7722 -3.7085 2.5580 0.4652 1.0205 -0.3080 -3.5088 2.5035 0.9410 -3.5518 3.1375 -0.5800 -2.4888 1.5865 1.9280 -2.6108 2.8665 -2.9160 1.5082 -2.8915 -2.3880 0.3142 -2.0075 -0.4600 1.6552 -1.3775 -0.7840 -0.6818 -0.5065 0.1070 -0.4298 0.3785 -0.8830 2.7262 -2.1565 2.7210 -0.5138 1.7265 -2.0760 2.6022 -2.8755 -1.1980 0.4692 -1.3315 0.4130 -1.5128 1.3245 1.6510 -1.5908 1.9395
0.3828 2.9660 -3.3802 2.0226 0.5349 3.0347 -2.3052 3.8050 -3.4202 3.1519 0.0843 1.0968 0.1975 -3.8925 1.9784 1.1923 -3.6631 2.8533 -0.1542 -2.8838 0.9966 1.9043 -2.3990 2.8205 -2.9677 2.1449 -1.8551 -2.6098 1.0237 -1.0070 -0.3269 1.2236 -1.7853 -1.0058 -0.5206 -0.2021 0.1993 -0.6790 0.0870 -0.6471 2.2743 -2.5639 2.3404 -0.2168 1.9566 -2.0228 2.7419 -2.6003 -1.3388 0.5777 -0.9510 0.4551 -1.6788 0.9911 1.5322 -1.4426 1.9499
-3.0387 3.6435 -1.2631 3.0109 0.1110 1.4658 -1.7918 3.6741 -3.7913 3.1365 -1.5798 -0.0677 -0.4060 -3.0173 3.1599 0.8851 -3.3646 3.3088 -0.7693 -1.9259 2.2739 1.9146 -2.6682 2.5579 -0.4660 1.7664 -3.2841 -0.1450 0.6817 -2.3739 -1.7894 1.5646 -0.8288 -0.6134 -0.4847 -0.3443 -0.0870 -0.2044 0.7542 -2.0713 2.5879 -1.6560 2.6587 -1.0818 0.9380 -1.3987 2.6711 -2.9410 -0.7732 0.5822 -1.1854 0.1734 -1.2879 1.5494 1.5704 -1.6678 1.7277

>  <OB_ATOM_TYPES> (1srgA1)
C.3 O.co2 O.3 O.co2 C.ar C.ar C.ar C.ar C.ar C.ar C.ar N.2 N.2 C.ar C.2 C.ar C.ar C.ar C.ar

>  <ENSEMBLE_RMSD> (1srgA1)
0.000 0.889 1.407

$$$$
