
 OpenBabel03071213D

 21 22  0  0  0  0  0  0  0  0999 V2000
   27.6670   13.4220  -10.0050 C   0  0  0  0  0
   36.2370   12.2760   -4.2390 O   0  0  0  0  0
   31.9470   17.3200   -8.7860 O   0  0  0  0  0
   29.7150   16.8490  -10.5260 O   0  0  0  0  0
   35.2230   13.5170   -5.9190 O   0  0  0  0  0
   31.9980   12.6420   -7.4150 N   0  0  0  0  0
   32.7230   13.0130   -6.3960 N   0  0  0  0  0
   28.6420   14.2100  -10.7080 O   0  0  0  0  0
   31.7030   10.0160   -4.3560 C   0  0  0  0  0
   32.8880    9.7360   -3.6710 C   0  0  0  0  0
   31.6590   11.1090   -5.2320 C   0  0  0  0  0
   34.0400   10.5070   -3.8660 C   0  0  0  0  0
   31.8940   14.9840   -8.1470 C   0  0  0  0  0
   30.3020   13.4460   -9.0820 C   0  0  0  0  0
   35.2370   12.4690   -4.9460 C   0  0  0  0  0
   31.3350   16.0240   -8.9100 C   0  0  0  0  0
   30.2680   15.7800   -9.7540 C   0  0  0  0  0
   31.3790   13.6990   -8.2340 C   0  0  0  0  0
   32.8090   11.8900   -5.4140 C   0  0  0  0  0
   29.7430   14.4830   -9.8420 C   0  0  0  0  0
   33.9920   11.5970   -4.7480 C   0  0  0  0  0
  1  8  1  0  0  0
  2 15  1  0  0  0
  3 16  1  0  0  0
  4 17  1  0  0  0
  5 15  2  0  0  0
  6  7  1  0  0  0
  6 18  1  0  0  0
  7 19  1  0  0  0
  8 20  1  0  0  0
  9 10  1  0  0  0
  9 11  2  0  0  0
 10 12  2  0  0  0
 11 19  1  0  0  0
 12 21  1  0  0  0
 13 16  2  0  0  0
 13 18  1  0  0  0
 14 18  2  0  0  0
 14 20  1  0  0  0
 15 21  1  0  0  0
 16 17  1  0  0  0
 17 20  2  0  0  0
 19 21  2  0  0  0
M  END
>  <MOLID> (1srhA1)
1srhA1

>  <SMILES_CANONICAL> (1srhA1)
COc1cc(NNc2ccccc2C(=O)O)cc(c1O)O	

>  <FINGERPRINT> (1srhA1)
0000000000000000000000000000001110000000000000000000100000001000001000000100000000000001000010000000000100000001000000100000000000000001000000000001000000000000000000000000000101000000000000000100001000000000000000000010000000000000000000000000000000000000000000010000000001000001000000000000000000000000000010000100000000000000000000000000000000000100010000000000000010010000000000000000100000000000110001000100001000001000000000000000000000000000000000010000001000000000010000010000000000001000100000000000100000000000000001000000000000000000000000100000000000000000000000000000010000000001000000000001010000000000001000100100110000000000010000000000000000000000000000000000110000000010001010100010000001100000000000000000100000000000000000000110000000000000000001000000000000000000000000000000000010000000000000000000000000000000000000000000010000000000000000000000000000000000000000000000000000000000000000000000001000000000000000000000111000000000000000001100000000000000000000000000000000000000000000000000000000000010

>  <MACCS166> (1srhA1)
000000000000000000000000000000000000000000001000010111000000000000011001000100000000000010001100101000000000000010000000001111100110101100111111110011110101111110111000

>  <OB_MW> (1srhA1)
290.09

>  <OB_logP> (1srhA1)
2.3896

>  <OB_PSA> (1srhA1)
111.05

>  <OB_MR> (1srhA1)
77.2647

>  <OB_ATOMIC_CHARGES> (1srhA1)
0.2526268859 -0.2405038646 -0.2829831664 -0.2798674186 -0.2405038646 -0.1278445638 -0.1278409484 -0.4680404854 0.0013888804 0.0002972725 0.0182699185 0.0079431489 0.063641497 0.0584733617 0.3890609436 0.238692339 0.2678021139 0.0955124871 0.0954293074 0.1819870255 0.0964591304

>  <MCT_HBD> (1srhA1)
5

>  <MCT_HBA> (1srhA1)
7

>  <ENSEMBLE_TOTAL> (1srhA1)
46

>  <ENSEMBLE_COORDS> (1srhA1)
-4.3045 0.1368 -2.8528 4.2655 -1.0092 2.9132 -0.0245 4.0348 -1.6338 -2.2565 3.5638 -3.3738 3.2515 0.2318 1.2332 0.0265 -0.6432 -0.2628 0.7515 -0.2722 0.7562 -3.3295 0.9248 -3.5558 -0.2685 -3.2692 2.7962 0.9165 -3.5492 3.4812 -0.3125 -2.1762 1.9202 2.0685 -2.7782 3.2862 -0.0775 1.6988 -0.9948 -1.6695 0.1608 -1.9298 3.2655 -0.8162 2.2062 -0.6365 2.7388 -1.7578 -1.7035 2.4948 -2.6018 -0.5925 0.4138 -1.0818 0.8375 -1.3952 1.7382 -2.2285 1.1978 -2.6898 2.0205 -1.6882 2.4042
-3.1409 -0.5351 -3.8798 4.2719 -1.6307 2.8738 -0.7020 4.2032 -1.3239 -2.7857 3.4669 -2.8785 3.7169 -0.7674 0.8477 0.4867 -0.3820 -0.5741 1.0170 -0.1886 0.6676 -3.3825 0.7249 -3.2610 -0.5889 -2.4756 3.0099 0.5545 -3.1079 3.6317 -0.3978 -1.5131 2.0949 1.7981 -2.7345 3.2870 -0.1328 1.9352 -0.9313 -1.4596 0.1512 -1.8764 3.3945 -1.3069 1.8948 -0.9184 2.8606 -1.4988 -2.0194 2.4584 -2.3517 -0.3939 0.5150 -1.1371 0.9485 -1.1258 1.6738 -2.2791 1.1507 -2.5525 2.0130 -1.6984 2.2841
-2.7263 0.1651 -4.5884 4.4026 -1.7525 1.9403 -0.3507 4.0529 -1.3925 -2.2053 3.5839 -3.3128 3.3095 0.0994 1.2002 -0.5885 -0.5641 0.0289 0.5963 -0.5952 0.7020 -3.3260 0.9623 -3.5721 -0.1335 -2.9483 3.4277 1.1901 -3.2284 3.9364 -0.2852 -2.0894 2.4079 2.2513 -2.5999 3.4061 -0.4583 1.7909 -0.6657 -1.9388 0.2278 -1.7631 3.2959 -0.9995 1.7322 -0.8402 2.7757 -1.4978 -1.8182 2.5184 -2.5400 -1.0020 0.4416 -0.8180 0.8635 -1.4381 1.7690 -2.3316 1.2816 -2.6808 2.0955 -1.6841 2.2805
-3.8167 0.4143 -3.6813 3.0777 0.5504 2.6467 0.6351 3.3924 -1.2007 -1.5964 3.7624 -2.6818 2.8810 0.0265 0.4462 -0.5648 -1.2298 -0.4605 0.6626 -1.6285 -0.0258 -3.4341 1.6311 -3.0453 0.2373 -3.4533 3.1031 1.1799 -2.7858 3.9730 0.1237 -3.0644 1.8246 1.9296 -1.7780 3.4975 0.0454 1.1268 -0.7895 -1.9796 0.2052 -1.7216 2.6197 -0.2005 1.6170 -0.2048 2.3185 -1.3557 -1.3844 2.5024 -2.1814 -0.8578 0.0001 -1.0064 0.9041 -1.9458 1.2964 -2.2405 1.4792 -2.3736 1.7831 -1.3231 2.1190
-2.3812 0.3559 -4.8447 4.3386 -2.3052 1.9744 -1.0193 3.9158 -0.6547 -2.6457 3.5677 -2.7907 3.6987 -0.3681 0.9633 -0.1219 -0.8320 -0.4956 0.9230 -0.7063 0.3702 -3.1306 0.9260 -3.7757 -0.3406 -2.1153 3.5140 0.8865 -2.5187 4.1653 -0.2913 -1.5227 2.3107 2.0677 -2.2657 3.5782 -0.6018 1.5788 -0.5304 -1.6471 0.0647 -2.0944 3.4407 -1.3463 1.6467 -1.1875 2.6356 -1.1181 -2.0405 2.4486 -2.2775 -0.8011 0.2293 -1.0589 0.9809 -1.3031 1.6169 -2.2506 1.2082 -2.7584 2.1232 -1.6473 2.2593
-3.2782 -0.5131 -3.7800 3.7749 -0.3039 1.5065 -0.7025 4.1305 -1.2161 -2.9263 3.4041 -2.5703 4.2854 -2.1869 2.6645 0.7036 -0.4623 -0.8866 1.3560 -0.3802 0.3098 -3.4928 0.6644 -3.0079 -0.7420 -2.1868 2.7075 0.2471 -2.7657 3.5880 -0.3477 -1.3924 1.7008 1.5454 -2.4741 3.4111 -0.0125 1.8659 -1.0328 -1.3937 0.0915 -1.9135 3.4552 -1.4405 2.1649 -0.8879 2.7923 -1.4533 -2.0703 2.3986 -2.1960 -0.2550 0.4483 -1.2867 1.0712 -1.1478 1.4240 -2.3165 1.0948 -2.4320 1.9867 -1.6368 2.2983
-2.7961 -0.6032 -3.8246 2.8103 0.3589 1.2133 -0.1115 4.1179 -1.4865 -1.5935 3.3556 -3.6165 4.0286 -1.5249 0.8750 -0.9669 -0.0825 0.7017 0.1408 -0.1013 1.4955 -2.8339 0.8105 -3.6521 -0.0099 -3.2534 3.3230 1.3501 -3.7298 3.2113 -0.3347 -2.0590 2.8070 2.2763 -2.9702 2.6053 -0.5080 2.0416 -0.4065 -1.8478 0.3417 -1.4765 3.0171 -0.9747 1.2869 -0.6617 2.8616 -1.4575 -1.4264 2.4335 -2.6141 -1.1080 0.7118 -0.4133 0.6397 -1.2550 2.0643 -1.9887 1.2087 -2.6383 1.9239 -1.6877 2.0025
-2.4184 1.2342 -5.0475 3.3224 -0.1848 0.9067 -1.0035 4.0761 -1.0249 -2.4653 3.4578 -3.1887 4.4296 -2.0418 1.5913 -0.4348 -0.5974 0.0317 0.6184 -0.4106 0.8815 -2.9194 0.6588 -3.8443 -0.1068 -2.6525 3.6655 1.2014 -3.1713 3.9881 -0.2333 -1.7262 2.7053 2.2758 -2.7196 3.3234 -0.7463 1.7776 -0.4676 -1.6622 0.0647 -1.9107 3.4057 -1.3739 1.5436 -1.2237 2.7442 -1.2680 -1.9772 2.4051 -2.4569 -0.9565 0.3701 -0.8009 0.9143 -1.2802 1.9134 -2.1661 1.1101 -2.7885 2.1461 -1.7404 2.2477
-4.3746 0.5340 -1.9927 1.9708 0.6955 3.3863 0.8991 3.2656 -2.4183 -1.7434 3.7312 -2.6936 2.5042 0.6553 1.1790 0.0294 -1.2211 -0.9096 1.1620 -1.4004 -0.1723 -3.6286 1.7465 -2.0129 0.6032 -3.9348 2.3853 1.0176 -3.2475 3.5884 0.6912 -3.3120 1.2006 1.4844 -1.9904 3.5130 0.4824 1.0627 -1.6332 -1.7840 0.2585 -1.4008 2.0580 0.1021 2.1720 0.0427 2.2503 -2.0767 -1.3779 2.4884 -2.2413 -0.4651 0.0107 -1.2780 1.1515 -1.9281 1.1020 -2.2693 1.5268 -1.9297 1.5464 -1.2931 2.2326
-3.2434 0.5558 -4.1783 3.0312 0.7771 1.9330 0.2453 3.1248 -0.1356 -1.6276 3.6973 -1.9999 3.0824 -0.4660 0.0303 -0.4381 -1.6120 -0.7985 0.6983 -2.0099 -0.1482 -3.0815 1.6114 -3.2366 -0.0826 -2.7490 3.3459 0.8471 -1.8939 4.0508 -0.0651 -2.7888 2.0043 1.7277 -1.1536 3.3584 -0.0959 0.7951 -0.4423 -1.7245 -0.0098 -2.0221 2.6718 -0.2794 1.1648 -0.3689 2.0693 -0.7603 -1.3576 2.3703 -1.7769 -0.7633 -0.3088 -1.1261 0.8437 -1.9435 1.2280 -2.0202 1.3697 -2.3903 1.7212 -1.1562 1.8995
-4.0551 0.1997 -2.6747 3.0017 0.1670 0.7971 0.8453 3.3181 -1.4490 -1.7724 3.6249 -2.0467 2.1126 1.1476 2.6420 0.3309 -1.4604 -1.2273 1.2992 -1.7195 -0.2966 -3.4871 1.3851 -2.1280 -0.0646 -3.3743 2.6561 0.3436 -2.4874 3.7219 0.2912 -3.1005 1.3916 1.0777 -1.4004 3.4374 0.6002 0.9589 -1.3624 -1.5684 -0.0578 -1.6614 2.1776 0.2032 1.8673 0.0837 2.1822 -1.5516 -1.3213 2.3404 -1.8726 -0.2530 -0.2233 -1.4150 1.0435 -1.8912 1.0518 -2.1261 1.2615 -1.9404 1.4407 -1.0739 2.0606
-4.3775 0.5618 -2.0484 2.5421 0.5691 1.2220 0.9415 3.1978 -2.5254 -1.6956 3.6944 -2.8405 1.9690 0.8011 3.4047 -0.0034 -1.2053 -0.8431 1.1317 -1.3518 -0.1015 -3.6143 1.7626 -2.1013 0.5885 -3.9313 2.4109 1.0093 -3.2688 3.6245 0.6773 -3.2833 1.2403 1.4786 -2.0121 3.5709 0.4826 1.0348 -1.6652 -1.7954 0.2706 -1.4242 2.0068 0.1299 2.3827 0.0643 2.2105 -2.1564 -1.3515 2.4638 -2.3405 -0.4813 0.0103 -1.2792 1.1386 -1.8962 1.1655 -2.2589 1.5265 -2.0015 1.5474 -1.2843 2.3057
-2.7938 -1.1393 -2.2692 3.9745 -2.1772 2.8364 -1.8190 4.4492 -1.9703 -2.8334 2.4821 -3.5302 3.8086 -1.5517 0.6500 0.7528 1.2836 0.5515 1.4451 0.1181 0.7238 -2.0471 -0.2271 -3.0690 -0.9225 -2.1519 2.3974 -0.0269 -3.1452 2.9489 -0.4227 -1.1227 1.6959 1.2934 -3.0523 2.7200 -0.5791 2.8729 -0.6975 -0.6712 0.5276 -1.2528 3.2918 -1.8530 1.7140 -1.4612 3.1594 -1.6703 -2.0224 2.1006 -2.4915 -0.1505 1.4978 -0.4723 1.0186 -0.9658 1.4775 -1.6705 0.8212 -2.2633 1.8358 -1.9265 1.9710
-2.0910 0.3803 -4.9630 3.5547 -1.9420 0.3830 -1.7690 3.6414 -0.1937 -3.1280 3.2882 -2.5046 4.4516 -2.0556 2.4659 0.3881 -0.6480 -0.7128 1.2755 -0.4227 0.3065 -2.9219 0.8064 -3.8879 -0.3992 -1.2672 3.4474 0.6128 -2.0373 4.1336 -0.1379 -0.7679 2.2303 1.8029 -2.2426 3.5478 -0.7037 1.5336 -0.4402 -1.2528 0.0927 -2.2948 3.4877 -1.8890 1.7316 -1.5279 2.4892 -0.8981 -2.2527 2.2962 -2.1398 -0.5145 0.2890 -1.1838 1.1489 -0.9890 1.5633 -2.1233 1.1384 -2.8171 2.0998 -1.6941 2.2265
-4.2671 2.9101 -2.7531 2.9624 -0.7349 4.4380 0.7003 1.7473 -3.4322 -1.8378 2.1610 -4.2162 2.8877 0.7628 2.7231 -0.7851 0.2236 0.8987 0.4929 0.0088 1.3315 -4.0050 1.5599 -2.3815 1.0037 -3.6079 0.9570 2.0576 -3.8531 1.9163 0.5465 -2.3601 0.7706 2.5850 -2.8257 2.6017 -0.0262 0.9522 -1.3128 -2.3812 0.8816 -0.7701 2.6738 -0.3522 3.1730 -0.2900 1.4445 -2.5328 -1.6568 1.6877 -2.9413 -1.1091 0.6657 -0.3712 1.0524 -1.2362 1.5594 -2.6692 1.4408 -2.0839 2.0653 -1.4762 2.4257
-1.9424 -0.9251 -3.8218 3.4137 -2.4558 0.4431 -1.9797 4.2732 -1.0092 -3.4364 2.7443 -2.6817 4.1745 -2.2778 2.5803 1.1696 0.7211 -0.2915 1.3791 -0.5776 0.0875 -2.7137 0.0429 -3.1180 -0.7479 -1.3241 2.9767 0.1448 -2.0902 3.8173 -0.3175 -0.8736 1.7881 1.3907 -2.3565 3.3947 -0.3981 2.5262 -0.6915 -0.7072 0.4009 -1.7881 3.2744 -2.1777 1.7588 -1.4980 3.0191 -1.2869 -2.2715 2.1987 -2.2009 0.0364 1.1581 -0.9544 1.0577 -1.0973 1.3308 -1.8980 0.9269 -2.4434 1.8695 -1.8555 2.1100
-4.7359 1.1767 -2.0281 3.7859 -0.7260 3.6730 0.8264 1.4727 -3.5527 -1.6500 2.2973 -4.2685 1.8922 0.5331 3.7480 -0.7367 0.4292 0.8921 0.5204 0.1414 1.3330 -3.7822 2.1762 -2.3771 0.9237 -3.4605 0.7379 1.9257 -3.8034 1.7237 0.5121 -2.1882 0.6233 2.4248 -2.8506 2.5280 0.0596 0.9147 -1.3759 -2.2493 1.2575 -0.7614 2.5078 -0.4367 3.3339 -0.1734 1.3591 -2.6203 -1.5100 1.7655 -3.0116 -1.0173 0.8631 -0.3882 1.0251 -1.1355 1.5045 -2.5223 1.6840 -2.1255 1.9734 -1.4698 2.4120
-3.9273 0.1921 -0.8318 2.0069 0.3578 3.5390 -0.3931 2.8333 -4.3425 -2.9338 2.7104 -3.4231 3.6239 -1.2337 3.7674 1.2333 0.4121 -0.5260 1.2561 0.0651 0.7979 -3.4490 1.5324 -0.8755 0.0766 -3.4143 0.9390 0.7048 -3.8899 2.1517 0.2746 -2.1484 0.5384 1.4673 -3.0552 2.8759 0.4088 1.6461 -2.4437 -1.1172 0.9745 -0.6984 2.5717 -0.8446 3.2830 -0.6015 2.1674 -3.1620 -1.9652 2.0941 -2.6715 0.1524 1.0011 -1.1577 1.1386 -1.2287 1.2854 -2.2167 1.5102 -1.4850 1.6889 -1.6818 2.4394
-1.3618 -0.8013 -3.8077 3.1788 -3.4466 0.6145 -2.7796 4.2076 -1.2873 -2.5652 2.9773 -3.6892 3.4865 -1.2009 0.3787 -0.0949 0.8567 0.8157 0.8403 -0.1339 0.8770 -1.0375 0.5817 -3.9158 -0.0178 -1.8701 4.0028 0.9829 -2.9138 4.0383 -0.0418 -1.0038 2.9777 1.9001 -2.9900 3.0607 -1.4878 2.5099 -0.2464 -0.6063 0.6774 -1.5447 2.9160 -2.1486 0.8955 -2.0996 3.0170 -1.3290 -2.0045 2.3405 -2.6106 -0.7014 1.2861 -0.3447 0.9317 -1.0798 1.8845 -1.3080 1.1914 -2.7116 1.8700 -2.0565 1.9416
-3.7192 0.3904 -0.2341 1.9243 -0.9394 4.6008 -0.5903 2.2920 -4.5680 -3.0008 2.5073 -3.3543 3.2046 0.0683 3.0068 1.3937 0.5728 -0.5466 1.4061 0.1700 0.7606 -3.2849 1.6885 -0.6291 0.1959 -3.3046 0.6631 0.6813 -3.8126 1.9279 0.4308 -2.0270 0.3253 1.3557 -3.0006 2.7588 0.3847 1.4034 -2.5908 -0.9583 1.1109 -0.6075 2.3390 -0.7295 3.3296 -0.6837 1.8538 -3.2716 -1.9848 1.9369 -2.6302 0.2551 1.0189 -1.1900 1.1837 -1.1255 1.2027 -2.1268 1.5350 -1.3532 1.5938 -1.6089 2.3997
-1.6959 1.2251 -4.8895 2.0077 -1.7666 -0.5475 -2.0809 3.9920 -0.6578 -1.5699 3.4049 -3.2062 3.8366 -1.0603 0.5913 -1.2167 -0.5080 0.7080 -0.3335 -1.5402 0.7881 -0.8178 0.6618 -3.9213 0.5508 -2.0713 4.2814 1.9952 -2.0644 4.2337 -0.1436 -1.9221 3.1444 2.6283 -1.8945 3.0606 -1.6336 1.7558 0.0208 -1.0154 0.0941 -1.6249 2.6784 -1.4530 0.5838 -1.7355 2.6943 -0.9323 -1.4610 2.3691 -2.3145 -1.2477 0.3947 -0.3291 0.5222 -1.7090 1.8578 -1.1467 1.1037 -2.6636 1.8790 -1.7064 1.8168
-3.7434 0.4420 -0.3180 2.0154 -0.8992 4.5600 -0.8007 2.2810 -4.5581 -3.0606 2.5750 -3.0960 3.1438 0.1815 2.9085 1.5072 0.3541 -0.8119 1.7064 -0.0060 0.4943 -3.0905 1.7064 -0.3659 0.0528 -3.2863 0.7494 0.3546 -3.6605 2.1126 0.5204 -2.1276 0.2603 1.0926 -2.8411 2.8778 0.3416 1.3363 -2.6974 -0.8002 1.0521 -0.5893 2.3292 -0.6550 3.2647 -0.7693 1.8472 -3.2574 -1.9889 1.9783 -2.4818 0.3408 0.9165 -1.2982 1.3027 -1.1981 1.0827 -2.0125 1.5588 -1.2032 1.5586 -1.5555 2.3669
-0.4746 -0.5066 -3.9976 3.5130 -1.2753 0.3591 -1.5875 4.2888 -0.6538 -1.2878 3.5453 -3.2293 1.6019 -1.7697 -0.7640 -1.3906 -0.2795 0.7995 -0.6656 -1.4345 0.8684 -0.9914 0.8177 -3.9070 0.5807 -2.0398 4.2391 2.0085 -2.1231 4.0264 -0.2384 -1.8445 3.1948 2.5052 -2.0018 2.7848 -1.4435 2.0308 0.0755 -1.1644 0.2563 -1.5364 2.2016 -1.6073 0.2865 -1.4344 2.9492 -0.9054 -1.2497 2.5471 -2.2877 -1.3000 0.6149 -0.2444 0.2851 -1.6635 1.8423 -1.0921 1.2462 -2.6000 1.6241 -1.7506 1.6490
-4.2906 1.8256 -0.9911 0.6365 0.4091 3.3547 0.0362 2.0573 -4.5695 -2.1760 3.3197 -3.6583 2.8887 0.2109 3.6431 0.3250 -0.5890 -0.5857 0.2629 -0.7632 0.7669 -3.1703 2.7017 -1.0511 1.4935 -4.1320 1.5158 2.2736 -3.9052 2.7130 0.8551 -3.1058 0.9306 2.3402 -2.6721 3.2400 0.1608 0.7404 -2.5947 -1.4633 1.0273 -0.8316 1.8265 -0.2192 3.2191 -0.4593 1.6600 -3.3535 -1.6555 2.3244 -2.8700 -0.3577 0.3922 -1.2749 0.9592 -1.7413 1.4538 -2.1463 2.0123 -1.6554 1.6607 -1.5530 2.5987
-0.5167 -0.4990 -4.0403 1.7301 -1.9031 -0.6502 -1.7746 4.2683 -0.7069 -1.5020 3.5147 -3.2873 3.6646 -1.3000 0.3709 -1.3047 -0.2708 0.7732 -0.5096 -1.3796 0.8185 -1.1040 0.7957 -3.9482 0.5464 -1.9661 4.2559 1.9793 -2.0944 4.1182 -0.2074 -1.7679 3.1644 2.5426 -2.0098 2.9026 -1.5104 2.0253 0.0341 -1.1856 0.2524 -1.5712 2.4805 -1.6010 0.4326 -1.5645 2.9352 -0.9533 -1.3961 2.5295 -2.3375 -1.3054 0.6165 -0.2795 0.3904 -1.6213 1.8362 -1.1876 1.2340 -2.6433 1.7347 -1.7586 1.7111
-4.1807 2.8692 -1.7470 2.8010 0.0526 3.9238 -0.1742 1.5340 -4.6591 -2.0674 3.1923 -3.7130 0.7600 0.6527 3.1260 0.1983 -0.6850 -0.4631 0.1011 -0.8705 0.8792 -2.9862 2.8812 -0.9716 1.6155 -4.1196 1.5519 2.4651 -3.8229 2.6839 0.8494 -3.1521 1.0274 2.4751 -2.5862 3.2088 0.0017 0.4453 -2.5577 -1.4372 1.0876 -0.7226 1.6613 -0.1649 3.2263 -0.5500 1.3750 -3.3508 -1.5961 2.2396 -2.8465 -0.4408 0.2975 -1.1771 0.8892 -1.7852 1.5464 -2.0538 2.0818 -1.5870 1.6689 -1.5223 2.6218
-1.0043 -0.8468 -3.6392 2.6801 -3.4356 0.2001 -3.0351 3.9481 -1.3334 -2.5141 2.7066 -3.6813 3.2265 -1.2288 0.0857 -0.0070 1.0940 1.0108 1.0441 0.2428 1.1797 -0.6591 0.5316 -3.7425 0.0788 -1.8272 4.0492 0.8021 -3.0518 3.7865 0.1898 -0.7934 3.2006 1.5986 -3.1358 2.7092 -1.5692 2.4824 -0.1760 -0.3623 0.7659 -1.3663 2.6047 -2.1443 0.6006 -2.1824 2.8742 -1.3044 -1.9224 2.1885 -2.5567 -0.6072 1.3866 -0.1938 1.0054 -0.8813 1.9866 -1.0633 1.1508 -2.5829 1.6963 -2.0266 1.7675
-4.6840 2.0606 -1.2533 2.3261 -1.2209 4.7566 0.4854 0.8816 -3.8964 -1.9358 1.9885 -4.3603 2.2559 0.6738 3.5021 -0.4976 0.5114 0.8125 0.7942 0.2194 1.1474 -3.7173 2.4607 -2.2193 1.5070 -3.2890 0.3654 2.1857 -3.7279 1.5648 1.0876 -2.0180 0.2677 2.4066 -2.8560 2.5618 0.0062 0.6904 -1.5796 -2.1091 1.4410 -0.6980 2.1760 -0.5409 3.5952 -0.3628 1.0177 -2.8270 -1.6751 1.5817 -3.0755 -0.9003 0.8982 -0.4524 1.2637 -1.0643 1.3663 -2.5324 1.7750 -2.0534 1.9200 -1.4832 2.4754
-3.9638 0.7942 -0.2683 3.2613 -1.2377 3.9760 0.0476 1.6493 -4.4494 -2.6121 1.7776 -3.9825 1.3438 -0.0178 4.1641 0.9468 1.1929 0.2507 0.7119 0.3886 1.3341 -3.5903 1.6860 -1.3156 0.7081 -3.0995 0.1930 1.4499 -3.7528 1.2500 0.4661 -1.7810 0.2666 1.8477 -3.0460 2.3208 0.5005 1.4327 -2.1258 -1.3131 1.4702 -0.5340 2.0228 -0.8539 3.5894 -0.3683 1.5277 -3.1474 -1.7994 1.5653 -2.8968 0.0149 1.3847 -0.7515 0.9772 -0.9700 1.3748 -2.2631 1.4992 -1.6335 1.6114 -1.6099 2.3855
-4.7046 1.9753 -1.3425 2.3697 0.6139 3.3857 0.5722 0.9807 -3.8345 -1.8627 2.0294 -4.3559 2.3089 -1.1606 4.8032 -0.5562 0.5012 0.8401 0.7213 0.2169 1.2323 -3.7158 2.4290 -2.2613 1.4417 -3.2579 0.3195 2.1521 -3.7333 1.4850 1.0197 -1.9852 0.2754 2.3979 -2.8921 2.5017 0.0338 0.7503 -1.5326 -2.1287 1.4273 -0.7085 2.1858 -0.6926 3.6803 -0.3085 1.0816 -2.7875 -1.6287 1.6114 -3.0694 -0.9141 0.9133 -0.4314 1.2167 -1.0655 1.4002 -2.5200 1.7693 -2.0708 1.9196 -1.5124 2.4709
-3.7973 2.2226 -0.1983 1.2860 -0.4407 4.6271 -0.3909 1.5388 -4.8342 -2.2679 3.1717 -3.7813 1.8856 0.8107 2.8156 0.3678 -0.5227 -0.5959 0.3470 -0.6419 0.7604 -2.9076 2.9929 -1.0028 1.6827 -4.0082 1.2583 2.3361 -3.8776 2.5426 1.0230 -2.9621 0.7398 2.3033 -2.7043 3.1963 -0.0312 0.5081 -2.7265 -1.2886 1.2190 -0.7917 1.6174 -0.2645 3.3272 -0.6731 1.3976 -3.4998 -1.7102 2.2444 -2.9391 -0.3468 0.4064 -1.3085 0.9915 -1.6674 1.4216 -2.0302 2.1415 -1.6341 1.6036 -1.5640 2.6233
0.4353 2.1472 -4.2147 3.8587 -2.2489 0.7102 -3.0296 3.5398 -0.7279 -1.9699 3.3533 -3.1752 2.2323 -1.2274 -0.5038 -1.3110 -0.7565 0.4901 -0.2712 -1.6230 0.6525 -0.3570 1.0204 -3.8557 0.4302 -1.6855 4.2393 1.8739 -1.7770 4.2584 -0.2158 -1.6550 3.0640 2.5607 -1.7909 3.1035 -2.1402 1.4206 -0.1104 -0.7904 0.1696 -1.6808 2.6343 -1.6928 0.5514 -2.3118 2.4056 -1.0059 -1.7127 2.3133 -2.3198 -1.3534 0.2416 -0.4561 0.5094 -1.6704 1.7924 -0.9349 1.2560 -2.6335 1.8632 -1.7401 1.8223
-3.6110 2.3158 0.0815 2.0505 -0.9621 4.7829 -0.5159 0.9583 -4.7735 -2.7313 2.2908 -3.9878 1.7839 0.7132 3.2740 0.8883 0.4478 -0.2058 0.5271 -0.1305 0.9759 -3.2291 2.7318 -1.2278 1.2872 -3.6876 0.7270 1.9769 -3.9266 1.9764 0.7995 -2.4661 0.4643 2.1387 -2.9254 2.8582 0.1775 0.6666 -2.5186 -1.1638 1.5643 -0.7223 1.8242 -0.4785 3.5390 -0.7043 1.1230 -3.4248 -1.9104 1.8130 -2.9979 -0.0557 0.8989 -1.0997 0.9995 -1.3544 1.3936 -2.1558 1.9992 -1.6864 1.6240 -1.5916 2.5715
-1.8492 -0.4673 -3.9697 2.7830 -1.7998 -0.3574 -3.3159 3.2691 -0.7468 -3.0867 2.0879 -3.1519 3.4541 -3.4214 1.0821 0.9277 1.4780 0.6406 1.6687 0.3593 0.9287 -0.7766 0.4293 -3.7015 -0.3029 -1.1933 3.5907 0.1683 -2.5582 3.5609 0.2166 -0.3019 2.7361 1.0984 -2.9243 2.6638 -1.2498 2.3276 -0.0219 0.0223 0.9117 -1.5174 2.7356 -2.4673 0.8174 -2.2068 2.4890 -0.9529 -2.0846 1.8472 -2.2467 -0.0666 1.5202 -0.3166 1.2351 -0.6709 1.7480 -1.0314 1.0459 -2.5026 1.6607 -1.9608 1.7172
-1.1220 -0.9193 -3.7278 2.2204 -3.9292 0.7548 -3.1290 3.3173 -0.3574 -3.4831 2.1192 -2.7576 3.5566 -2.1284 0.3518 1.2287 1.3396 0.0918 1.7324 0.1252 0.4745 -1.4190 0.4706 -3.8323 -0.0805 -0.6298 3.5839 0.3076 -2.0021 3.8232 0.3917 0.0170 2.5072 1.1418 -2.6161 2.9690 -0.9852 2.3177 -0.1169 -0.1012 0.9049 -1.8649 2.5765 -2.6284 0.8805 -2.1333 2.4816 -0.7970 -2.3317 1.8180 -2.0742 0.0806 1.4819 -0.6610 1.2825 -0.6363 1.5434 -1.3656 1.0220 -2.5729 1.6317 -1.9252 1.7818
-0.6205 0.3375 -4.5498 3.7005 -2.0555 0.7114 -3.1212 3.3879 -0.4082 -3.5448 2.0330 -2.7090 2.2615 -3.7972 0.3844 1.1476 1.2701 0.1799 1.6649 0.0541 0.5328 -1.6293 0.1034 -3.5729 -0.1163 -0.8054 3.6373 0.3185 -2.1685 3.8525 0.3438 -0.1162 2.5808 1.1807 -2.7355 2.9932 -0.9899 2.3699 -0.1384 -0.2083 0.7416 -1.7424 2.5317 -2.7147 0.8809 -2.1110 2.5723 -0.8521 -2.3321 1.8508 -2.0931 0.0201 1.4232 -0.6016 1.2559 -0.7224 1.6065 -1.4116 0.9678 -2.5258 1.6596 -1.9963 1.8336
0.3149 2.1495 -4.2530 2.2665 -1.2310 -0.4675 -2.9991 3.5271 -0.6255 -2.0309 3.3720 -3.1190 3.9792 -2.1625 0.6902 -1.2852 -0.8213 0.4379 -0.1911 -1.6246 0.5962 -0.4931 1.0307 -3.9041 0.3909 -1.6753 4.2002 1.8327 -1.7325 4.2749 -0.2037 -1.6521 2.9992 2.5612 -1.7383 3.1463 -2.1240 1.3799 -0.0848 -0.8595 0.1389 -1.7331 2.8285 -1.7488 0.6476 -2.3135 2.3865 -0.9536 -1.7688 2.3092 -2.2926 -1.3686 0.1965 -0.4847 0.5665 -1.6547 1.7524 -1.0248 1.2453 -2.6573 1.9219 -1.6945 1.8302
-2.6735 1.0562 0.9520 2.4275 0.6450 2.2317 -0.7477 2.2443 -4.5076 -2.5476 3.0588 -2.6806 0.8620 0.4023 3.8545 1.4567 -0.5429 -1.2805 1.9483 -0.7834 -0.0257 -2.4421 2.0649 -0.0268 0.2466 -3.7851 1.1885 0.0161 -3.4662 2.5782 0.9059 -2.9182 0.4055 0.4286 -2.2844 3.0586 0.3105 0.8224 -2.9193 -0.5303 0.6961 -0.6631 1.4125 -0.0053 2.8410 -0.6539 1.6976 -3.2523 -1.6487 2.1031 -2.2777 0.4055 0.3113 -1.5566 1.3354 -1.6097 0.9022 -1.6106 1.6038 -1.0260 1.0987 -1.3106 2.2041
-3.5225 2.7737 -0.1370 0.6396 0.4585 3.3056 -0.9180 1.1355 -4.9397 -2.3743 3.1106 -3.8016 2.7337 0.0157 4.0795 0.3179 -0.6052 -0.6538 0.5410 -0.5950 0.6945 -2.4909 3.3133 -0.9572 1.6090 -4.0476 1.3522 2.2261 -3.9251 2.6536 1.0564 -2.9697 0.7745 2.2216 -2.7382 3.2804 -0.3329 0.2685 -2.8054 -1.1292 1.3359 -0.7932 1.7687 -0.2805 3.3902 -1.0042 1.1458 -3.5704 -1.8072 2.1884 -2.9582 -0.3937 0.3504 -1.3486 1.0998 -1.6461 1.4055 -1.8867 2.2679 -1.6158 1.6459 -1.5570 2.6449
-2.5849 2.2538 0.8355 1.6622 0.0143 4.1787 -1.1702 1.4675 -4.8068 -2.5008 3.1492 -3.1670 0.9867 0.9696 2.2314 0.8847 -0.7377 -1.1060 1.5840 -0.7237 0.0643 -2.1823 2.9384 -0.3476 1.1167 -4.0692 1.4597 1.0162 -3.7923 2.8750 1.3167 -3.0606 0.5988 1.0763 -2.5240 3.3123 -0.1692 0.3694 -2.9566 -0.6719 1.0706 -0.7031 1.2822 -0.0215 2.8795 -0.9904 1.3053 -3.4571 -1.7345 2.1800 -2.5703 0.0170 0.2461 -1.5176 1.3948 -1.6716 1.0529 -1.6034 2.0565 -1.2345 1.2701 -1.4202 2.3785
-0.4857 3.1796 -4.2313 3.5309 -1.5043 0.2957 -4.3932 1.0253 -1.6715 -3.0876 3.0633 -2.8533 4.5460 -1.2577 2.3072 -0.2400 -1.0761 -0.4948 0.8997 -0.9511 0.2464 -0.1940 3.0875 -2.8412 -0.3017 -1.8544 3.5792 0.9333 -2.1364 4.2732 -0.2551 -1.4500 2.3031 2.1080 -2.0060 3.6341 -2.3397 -0.0072 -1.0540 -0.2356 1.0300 -1.6524 3.5292 -1.4114 1.6447 -3.0228 0.9870 -1.6457 -2.3188 2.0825 -2.2810 -0.8803 0.0062 -1.0556 1.0104 -1.3207 1.5736 -0.9715 2.0885 -2.3124 2.1685 -1.5745 2.2360
0.0367 2.3459 -4.4408 3.2976 -0.4605 0.5454 -4.2874 0.9239 -2.0263 -2.8393 2.4079 -3.7455 4.0286 -2.5867 0.8358 -0.5418 0.4997 0.9273 0.6855 -0.0697 1.0960 -0.0585 2.9492 -3.1546 -0.0150 -2.3875 3.8380 1.1785 -3.2001 3.8534 -0.1109 -1.3816 2.9584 2.1731 -2.9425 2.9885 -2.4151 0.6694 -0.5821 -0.2954 1.6939 -1.1466 3.2137 -1.7048 1.0681 -2.9730 1.1466 -1.7068 -2.1892 1.9389 -2.6325 -1.0153 0.9508 -0.2806 0.9420 -1.1039 1.9766 -0.8846 2.1703 -2.3835 2.0697 -1.8590 2.0117
0.3881 0.4969 -4.1510 2.1396 -2.8413 -0.2727 -3.2191 3.2469 -0.5407 -1.5310 3.6089 -2.6206 3.4874 -1.0328 0.0493 -1.5144 -1.1769 0.2136 -0.4189 -1.9013 0.5956 0.3840 1.5943 -3.2431 0.4333 -0.9709 4.0331 1.8776 -0.9115 3.9786 -0.2621 -1.3075 2.9352 2.5126 -1.1913 2.8292 -2.3820 1.0524 -0.1729 -0.5966 0.1879 -1.5489 2.5395 -1.7285 0.3830 -2.4092 2.1934 -0.8832 -1.5101 2.3803 -2.0090 -1.4518 -0.0145 -0.5268 0.4049 -1.5714 1.6582 -0.6316 1.4116 -2.3327 1.7598 -1.5248 1.6257
0.8938 -0.0736 -3.5154 3.1990 -1.1246 -0.0982 -2.3866 3.8002 -0.4237 -0.9997 3.5811 -2.7310 1.3924 -2.2586 -0.8816 -1.7888 -0.8800 0.4949 -0.8628 -1.8414 0.8020 0.0707 1.0892 -3.5228 0.6305 -1.3173 4.0921 2.0389 -1.2237 3.7778 -0.2571 -1.5416 3.1108 2.4480 -1.3625 2.5067 -2.0626 1.4932 0.0567 -0.8585 0.0971 -1.4992 1.9777 -1.6976 0.0308 -1.8673 2.5674 -0.7281 -1.1016 2.4519 -1.9569 -1.5333 0.1918 -0.3366 0.1613 -1.6498 1.7128 -0.5791 1.2644 -2.3193 1.4854 -1.5651 1.4281
-3.1325 2.0988 0.5918 1.3218 0.5922 3.4735 -1.1125 0.5452 -4.6335 -3.1483 1.8457 -3.4190 2.6472 -1.0038 4.4109 1.5188 0.6887 -0.6116 1.6103 0.2364 0.6803 -2.8925 2.6492 -0.7006 0.6772 -3.3125 0.4109 0.8465 -3.7661 1.7725 0.9091 -2.0268 0.1060 1.1951 -2.8873 2.7252 0.1806 0.5955 -2.6375 -0.6913 1.6591 -0.6548 1.9109 -0.6243 3.5121 -0.9584 0.8522 -3.3048 -2.0639 1.5220 -2.6419 0.3282 1.0012 -1.2422 1.3509 -1.0571 1.1138 -1.9514 1.8805 -1.3480 1.4542 -1.4889 2.3968
-0.5281 -0.2751 -4.1966 0.8491 -2.3601 -0.6590 -2.6747 3.5519 -0.2300 -3.3832 2.1954 -2.4574 1.0524 -4.1672 0.6970 1.5017 1.1619 -0.0042 1.9906 -0.0687 0.3590 -1.6839 0.1747 -3.4942 1.3787 -0.3521 3.9453 0.8706 -1.6988 4.0668 1.7546 0.1058 2.7425 0.7657 -2.4710 2.9741 -0.6252 2.3502 -0.0813 -0.0903 0.6713 -1.7299 1.0430 -2.9541 0.5383 -1.7922 2.6109 -0.6982 -2.1585 1.9007 -1.9121 0.2837 1.3457 -0.6266 1.6268 -0.7087 1.5313 -1.3346 0.9632 -2.4195 1.1538 -1.9759 1.6546

>  <OB_ATOM_TYPES> (1srhA1)
C.3 O.co2 O.3 O.3 O.co2 N.pl3 N.pl3 O.3 C.ar C.ar C.ar C.ar C.ar C.ar C.2 C.ar C.ar C.ar C.ar C.ar C.ar

>  <ENSEMBLE_RMSD> (1srhA1)
0.000 0.654 0.693 0.943 0.988 1.038 1.063 1.175 1.220 1.310 1.317 1.320 1.334 1.514 1.586 1.607 1.626 1.708 1.737 1.854 1.863 1.881 1.901 1.913 1.933 1.950 1.956 1.966 2.001 2.046 2.063 2.125 2.128 2.141 2.162 2.178 2.196 2.230 2.257 2.282 2.335 2.394 2.404 2.408 2.419 2.623

$$$$
