
 OpenBabel03071213D

 35 37  0  0  0  0  0  0  0  0999 V2000
   54.6280   19.5270   -1.7280 C   0  0  0  0  0
   53.6860   18.1710    0.1900 C   0  0  0  0  0
   52.3300   20.2880   -6.2750 O   0  0  0  0  0
   51.5720   14.0270   -5.6050 O   0  0  0  0  0
   53.3270   18.7000   -7.3160 O   0  0  0  0  0
   53.1420   12.4690   -5.6520 O   0  0  0  0  0
   54.9390   16.9380   -3.9590 O   0  0  0  0  0
   50.3130   18.1120   -6.5120 C   0  0  0  0  0
   49.8520   16.6610   -6.7000 C   0  0  0  0  0
   51.8320   13.9080   -1.8230 C   0  0  0  0  0
   52.5980   18.0910   -2.0020 C   0  0  0  0  0
   54.1010   13.7350   -3.0370 C   0  0  0  0  0
   50.8920   12.9890   -1.3140 N   0  0  0  0  0
   51.5380   18.2350   -4.2180 N   0  0  0  0  0
   52.9520   15.7650   -3.9830 N   0  0  0  0  0
   46.1420   15.7920   -8.8100 C   0  0  0  0  0
   47.3130   16.0460   -9.5300 C   0  0  0  0  0
   46.1950   15.8210   -7.4020 C   0  0  0  0  0
   51.8310    9.5840   -0.6900 C   0  0  0  0  0
   53.2130    9.7410   -0.9640 C   0  0  0  0  0
   48.5000   16.3550   -8.8380 C   0  0  0  0  0
   47.3940   16.1190   -6.7300 C   0  0  0  0  0
   50.9040   10.6380   -0.8550 C   0  0  0  0  0
   53.7230   10.9460   -1.4800 C   0  0  0  0  0
   53.9410   18.2290   -1.3100 C   0  0  0  0  0
   52.9430   13.2580   -2.1640 C   0  0  0  0  0
   51.6340   18.0880   -5.7220 C   0  0  0  0  0
   52.8370   18.1030   -3.5130 C   0  0  0  0  0
   53.5300   14.4480   -4.2980 C   0  0  0  0  0
   52.5090   19.0800   -6.4520 C   0  0  0  0  0
   52.6430   13.5310   -5.1330 C   0  0  0  0  0
   53.6810   16.8680   -3.8590 C   0  0  0  0  0
   48.5260   16.4110   -7.4500 C   0  0  0  0  0
   51.4420   11.8400   -1.2860 C   0  0  0  0  0
   52.7980   11.9770   -1.6420 C   0  0  0  0  0
  1 25  1  0  0  0
  2 25  1  0  0  0
  3 30  1  0  0  0
  4 31  1  0  0  0
  5 30  2  0  0  0
  6 31  2  0  0  0
  7 32  2  0  0  0
  8  9  1  0  0  0
  8 27  1  0  0  0
  9 33  1  0  0  0
 10 13  1  0  0  0
 10 26  1  0  0  0
 11 25  1  0  0  0
 11 28  1  0  0  0
 12 26  1  0  0  0
 12 29  1  0  0  0
 13 34  1  0  0  0
 14 27  1  0  0  0
 14 28  1  0  0  0
 15 29  1  0  0  0
 15 32  1  0  0  0
 16 17  2  0  0  0
 16 18  1  0  0  0
 17 21  1  0  0  0
 18 22  2  0  0  0
 19 20  2  0  0  0
 19 23  1  0  0  0
 20 24  1  0  0  0
 21 33  2  0  0  0
 22 33  1  0  0  0
 23 34  2  0  0  0
 24 35  2  0  0  0
 26 35  1  0  0  0
 27 30  1  0  0  0
 28 32  1  0  0  0
 29 31  1  0  0  0
 34 35  1  0  0  0
M  END
>  <MOLID> (1tmnA1)
1tmnA1

>  <SMILES_CANONICAL> (1tmnA1)
CC(C[C@@H](C(=O)N[C@H](C(=O)O)C[C@H]1CNc2c1cccc2)N[C@H](C(=O)O)CCc1ccccc1)C	

>  <FINGERPRINT> (1tmnA1)
0000000000000001010000000010001000000001000000000101001000000000000000000001000000000001000000100000010000000001000001100000000000100000000010000000000010000000000000000000000000100000000100000000001100000000001000000000000000100000000000000000000000000000000000000010000000001000000000000000000000001000000010001100000000001000001100000010000000000100010000000000001110110000000000000000011000000000100000000001001000000001001000000010000000000011100000000001101000000001010000000000000000001100000000000000100000010000000001001000000000000000100000100000000000000000000000000000100001000000000000000000100000000000000000000000001000000001010000000001000000000001000000000011100000100100100011100000000000100011000000000000000000000001100000110101000000000000000110010000000000000100000000000000000010000000000000000000000000000000000000000000000000000000000000001001000000000000000100001000000000001100000000001000000000000000000000000000011000000000000010110010000000000000010000001000000000100000010000000010011000000000

>  <MACCS166> (1tmnA1)
000000000000000000000000010000000000000000001000010001000000000000000000010100100010000001110011001000011000011000101101101010010010001111111101111010101111111110111000

>  <OB_MW> (1tmnA1)
481.258

>  <OB_logP> (1tmnA1)
4.1653

>  <OB_PSA> (1tmnA1)
127.76

>  <OB_MR> (1tmnA1)
137.86

>  <OB_ATOMIC_CHARGES> (1tmnA1)
5.93844e-05 5.93844e-05 -0.2441105968 -0.2437493026 -0.2441105968 -0.2437493026 -0.2718268213 0.0336164195 0.0283646892 0.1165838439 0.0267670746 0.0394494581 -0.2375749111 -0.2004092445 -0.1944164285 -2.00236e-05 -0.0003225279 -0.0003225279 0.0013000658 -0.0002381975 -0.0042658463 -0.0042658463 0.0157653335 -0.0029508018 0.0018811982 0.0474664015 0.1764475761 0.1509089743 0.1981622834 0.3802750362 0.3842104935 0.2576470082 -0.0221272651 0.0613652558 -0.00586964

>  <MCT_HBD> (1tmnA1)
5

>  <MCT_HBA> (1tmnA1)
8

>  <ENSEMBLE_TOTAL> (1tmnA1)
50

>  <ENSEMBLE_COORDS> (1tmnA1)
3.1710 1.4223 3.1617 2.2998 3.7210 2.9755 0.6370 5.2337 -2.0844 2.0790 -1.6771 -2.2419 -0.9817 5.1478 -0.4872 0.0015 -2.5982 -2.3538 -0.7675 0.5631 0.8622 -0.4396 2.7730 -2.9580 -0.9193 1.3504 -3.1452 0.5008 -4.7877 1.1253 2.2852 2.2233 1.0075 1.4354 -2.5263 0.6142 0.5878 -5.4614 2.4257 1.0585 2.5799 -1.0503 1.1731 -0.2176 -0.1306 -5.0512 0.9917 -4.2065 -4.2256 1.6544 -5.0363 -4.5372 0.4205 -2.9745 1.0344 -3.5766 5.6315 1.0152 -2.3296 5.1216 -2.8194 1.7917 -4.7021 -3.2389 0.5651 -2.6541 0.8819 -4.7329 4.7601 0.8186 -2.1211 3.6948 2.1309 2.2972 2.5077 0.4197 -3.2870 1.4377 -0.2279 3.0972 -1.4964 0.9342 2.1508 0.3347 0.7089 -1.5693 -0.3002 -0.2443 4.5843 -1.2851 0.8660 -1.9962 -1.7309 0.3468 0.7606 0.3804 -2.3487 1.2921 -3.5442 0.7259 -4.5434 3.4395 0.6898 -3.1955 2.9018
3.8815 1.5409 2.5594 2.5984 3.6437 2.5542 -1.1036 4.9937 -0.1812 1.5347 -1.9720 -2.1182 0.5121 5.2396 -1.7710 -0.4721 -2.9792 -1.7561 -0.7460 0.6050 1.0946 -0.9597 2.8003 -2.7318 -1.7684 1.5227 -2.7885 0.0429 -4.6229 1.6228 2.4245 2.0748 0.6457 1.3514 -2.6066 0.9117 0.2571 -5.4174 2.8374 0.8204 2.4044 -1.1431 1.0447 -0.3643 -0.0093 -4.9841 1.7730 -5.6046 -3.7426 1.5194 -6.0561 -5.2191 1.9391 -4.1813 2.0887 -4.0644 5.8109 2.3062 -2.8181 5.3472 -2.6355 1.4264 -5.1209 -4.1937 1.8583 -3.3147 1.3680 -5.0372 5.0025 1.8014 -2.4196 4.0416 2.5860 2.1921 2.1430 0.4598 -3.1906 1.9858 -0.4695 3.0586 -1.3251 0.9637 2.0438 0.2594 0.5253 -1.7062 0.0226 -0.2689 4.5359 -1.1479 0.4526 -2.2796 -1.3642 0.3213 0.6976 0.4906 -2.8467 1.6161 -3.8052 0.9245 -4.6795 3.7861 1.1447 -3.3273 3.3037
4.7130 2.1283 0.8433 3.7437 4.3852 1.0230 -0.5287 5.5501 -1.9015 2.0009 -1.7958 -1.6753 -0.7695 5.6550 0.3590 0.0698 -2.8829 -1.1638 -0.1101 1.2162 1.5814 -1.9990 3.1537 -1.7282 -2.7304 1.8991 -1.3039 0.1535 -1.4405 3.1874 2.5821 2.6328 -0.2778 1.8894 -1.7053 1.3275 -0.9008 -2.3963 3.5436 0.3386 2.9028 -1.1260 1.1731 0.1814 -0.0456 -2.6841 -0.9967 -4.4610 -1.7888 -1.1010 -3.4627 -3.6579 0.0800 -4.4518 -0.6733 -6.0450 2.7297 0.5326 -6.0301 2.1291 -1.7924 -0.1331 -2.3804 -3.6645 0.9754 -3.4480 -1.2538 -4.8152 3.2488 1.2792 -4.7866 2.0060 3.4272 2.9120 0.9415 1.2882 -2.2820 2.5924 -0.9227 3.5160 -0.7312 1.1118 2.6027 0.0711 0.8751 -1.1797 0.3336 -0.7341 5.0051 -0.6775 0.9124 -2.0344 -0.9034 0.6547 1.2705 0.6200 -2.6812 0.8767 -2.3809 -0.5773 -3.6623 3.1144 0.7234 -3.6562 2.4671
4.0549 1.3914 2.4772 3.2055 3.7041 2.3448 -0.8952 5.1116 -0.1260 1.3122 -1.8750 -2.1876 0.4956 5.2439 -1.9286 -0.7999 -2.6269 -1.8042 -0.5195 0.7612 1.3368 -1.0041 2.7115 -2.5072 -2.1723 1.7857 -2.2609 -0.2601 -4.5096 1.5681 2.6342 2.0667 0.5810 1.1587 -2.5906 0.8056 -0.0711 -5.2991 2.7902 0.9238 2.4665 -1.0904 1.0509 -0.2893 -0.0023 -4.5027 1.0499 -5.7698 -4.7449 2.1583 -5.0472 -3.4345 0.1466 -5.3799 1.8598 -4.0061 5.7273 2.1455 -2.7821 5.2420 -3.9545 2.4373 -3.8619 -2.6939 0.4097 -4.2887 1.0846 -4.9521 4.9374 1.6595 -2.3788 3.9310 2.8944 2.2569 2.0562 0.2536 -3.1029 1.9032 -0.3816 3.1015 -1.1902 1.1513 2.1130 0.3014 0.3997 -1.5713 -0.0103 -0.1838 4.5867 -1.1547 0.2176 -2.0687 -1.4151 0.4645 0.8033 0.6007 -2.9630 1.6021 -3.5022 0.6589 -4.5917 3.7157 0.9561 -3.2638 3.2085
2.9596 1.6879 3.2084 1.4704 3.6409 3.0002 0.4806 4.9201 -2.3424 2.8298 -1.6115 -2.0184 -0.7016 5.2772 -0.4310 1.2318 -3.2290 -2.0727 -0.7361 -0.0583 0.6228 -1.1288 2.6136 -2.6456 -2.1755 1.5433 -2.4326 2.4277 -4.8516 1.6898 1.9329 2.2179 1.0307 2.2789 -2.4712 0.9047 2.1761 -5.3485 3.0479 0.6882 2.3403 -1.0516 1.4569 -0.3838 -0.0548 -5.3280 1.6055 -5.3263 -4.2871 0.7738 -5.5118 -5.3586 2.4836 -4.1702 0.2204 -3.3750 5.5619 -0.0837 -2.3211 4.7794 -3.1959 0.7521 -4.5535 -4.3468 2.4673 -3.2843 1.0026 -4.4852 5.0361 0.3340 -2.2963 3.3861 1.7290 2.2322 2.5271 1.5253 -3.6221 1.5315 -0.5582 3.0446 -1.3144 0.6452 1.8650 0.3227 1.3914 -1.8196 -0.1312 -0.2812 4.5198 -1.2953 1.7807 -2.2951 -1.5027 0.3688 0.3811 0.3101 -3.2141 1.5795 -3.4924 1.4148 -4.4500 3.7583 1.0502 -3.3274 2.9134
2.3349 1.7087 3.3201 1.1772 3.7901 2.6894 1.2243 4.7361 -2.4857 2.0630 -2.0322 -1.9846 -0.3545 5.2424 -0.9272 0.2440 -3.3883 -1.8331 -1.1512 0.1421 0.3634 -0.5335 2.6588 -3.2448 -1.4904 1.4922 -3.3576 0.6837 -4.8983 1.6060 1.7142 2.0957 0.9698 1.6409 -2.6610 1.0152 0.9404 -5.6404 2.8450 0.8207 2.1597 -1.2842 1.0374 -0.5251 0.0000 -5.4132 2.5548 -4.7058 -4.3702 2.7486 -5.5327 -5.1965 1.9984 -3.3824 2.0890 -3.9564 5.9864 2.0939 -2.6887 5.5300 -3.0285 2.3981 -5.1019 -3.9523 1.6888 -2.9764 1.6909 -5.0532 5.1159 1.6672 -2.3949 4.1698 1.2993 2.3136 2.4055 0.7589 -3.4128 1.9880 -0.2509 3.0007 -1.7995 0.5077 1.8363 0.0986 0.7691 -1.9397 0.0138 0.1792 4.4353 -1.6763 0.9712 -2.5277 -1.3548 0.0331 0.4055 0.1634 -2.8222 1.9131 -3.8633 1.3225 -4.7864 3.8521 1.3004 -3.4140 3.3781
3.8745 1.9325 2.1682 4.5020 3.7299 0.6042 -0.6895 5.1788 0.9035 1.8750 -1.8617 -2.2345 -0.1189 5.5984 -1.2640 -0.2931 -2.5357 -2.3803 -0.1765 0.6711 1.4646 -1.7744 3.1580 -1.6295 -2.4000 1.7849 -1.5147 -0.9697 -3.8727 1.2072 2.6697 2.1868 0.0286 0.9987 -2.4379 0.6322 -1.0230 -4.8226 2.3227 0.5168 2.7222 -0.9620 1.1083 -0.1672 -0.2695 -3.2436 0.0690 -5.3471 -4.2638 0.4049 -4.5375 -1.8739 0.2957 -4.9217 1.0826 -4.4358 5.3953 1.7101 -3.2942 5.0515 -3.9953 1.0013 -3.2410 -1.6240 0.8400 -3.7176 0.1101 -5.0410 4.4970 1.4048 -2.6374 3.7887 3.3534 2.9222 1.1552 -0.0588 -2.7281 1.6753 -0.7311 3.3553 -0.5535 1.1727 2.2035 0.2285 0.4534 -1.4456 -0.3713 -0.4686 4.8229 -0.3871 0.6126 -1.9936 -1.7606 0.6188 0.8350 0.5408 -2.7274 1.2279 -2.8521 -0.1516 -4.4518 3.3186 0.5198 -3.2147 2.9617
3.5737 2.7481 3.0842 3.3938 4.3220 1.1984 -0.0492 5.3072 -0.8388 1.7152 -1.7119 -2.3947 -1.6852 4.3642 0.4315 -0.4637 -2.3697 -2.3740 -0.6077 0.4574 1.2960 -0.6276 3.1244 -2.6022 -0.6631 1.7721 -3.2814 0.7556 -4.9579 0.9658 2.4285 2.0556 1.0154 1.3511 -2.5884 0.4322 0.8121 -5.5828 2.2921 0.9129 2.6105 -0.7888 1.0498 -0.2421 -0.1623 -4.6234 0.4285 -4.1833 -4.1109 0.1793 -2.9648 -3.8399 1.1549 -5.1667 0.7043 -3.5771 5.4541 0.5721 -2.3567 4.8990 -2.7716 0.6320 -2.6355 -2.6029 1.5841 -4.8595 0.7896 -4.7643 4.6157 0.4774 -2.2127 3.4540 2.6974 3.2122 1.9478 0.4177 -3.4824 1.2171 -0.4598 2.9791 -1.1053 0.9877 2.0710 0.5615 0.5350 -1.5753 -0.3362 -0.8065 4.2668 -0.4150 0.5168 -1.9179 -1.7976 0.3841 0.6892 0.6066 -2.0545 1.3254 -3.5384 0.7309 -4.6304 3.2804 0.5598 -3.3142 2.6926
4.3638 4.3463 0.0043 4.2259 2.2966 -1.3528 -2.8680 4.1478 -0.1691 2.8396 -3.1497 0.5513 -1.1557 5.6447 -0.3315 2.3072 -2.1888 -1.4439 0.2972 0.9841 1.8672 -0.3236 3.3436 -2.1273 -0.2823 1.9601 -2.7456 -2.1188 -3.2327 1.3575 2.6448 2.6543 0.5202 -0.1711 -2.0800 0.4291 -1.8383 -4.6172 1.7523 0.3361 3.2845 0.2825 1.2403 -0.1413 0.0664 -4.0418 0.2107 -3.8058 -3.2293 0.6577 -4.7803 -3.6725 0.3898 -2.4137 0.7777 -5.3989 4.2936 1.2751 -4.1540 4.4274 -1.9674 1.2923 -4.4412 -2.5003 0.9677 -2.1001 -0.2685 -5.6713 3.3196 0.8072 -3.0780 3.5657 3.4271 3.3220 -0.5868 -0.8666 -2.4215 1.7348 -0.7588 3.2735 -0.6744 1.2847 2.2140 0.0254 1.2033 -1.4766 0.6091 -1.5755 4.4975 -0.3806 2.1597 -2.2767 -0.2336 0.8729 0.9796 0.7848 -1.6198 1.4540 -3.1516 -0.7123 -4.6731 2.5378 -0.0919 -3.3611 2.6094
5.1826 2.6311 1.5607 3.7898 4.6484 1.8437 -1.8600 4.3691 0.7801 3.5543 -2.7276 0.6074 -0.4847 5.2495 -0.8108 3.5693 -1.6164 -1.3832 0.7908 0.8560 2.0049 -1.3165 2.2760 -1.5761 -1.6320 0.8272 -1.2780 0.4806 -4.0762 -0.2888 3.0718 2.8665 0.3088 0.6528 -1.5716 -0.6653 0.0427 -4.8147 0.9015 0.8770 2.7732 -0.6990 2.0564 0.2070 0.1739 -4.4212 -1.0509 -3.9175 -3.1047 -1.1901 -4.1560 -4.8744 -0.2566 -2.7896 -1.8402 -3.1825 3.6990 -1.9234 -1.9443 3.1743 -2.1377 -0.5258 -3.2989 -3.9803 0.3620 -1.9985 -1.1661 -4.2473 2.9705 -1.3782 -1.6661 1.8532 3.7698 3.1583 1.6145 -0.2152 -2.7148 -0.1928 -0.5478 2.8506 -0.4088 1.6102 2.5546 0.5411 1.8068 -1.2143 0.2462 -0.9305 4.2861 -0.2062 3.0626 -1.8408 -0.2938 1.4298 1.1237 0.9899 -2.5587 0.2356 -2.2722 -0.6273 -3.9828 1.7688 -0.7484 -2.6520 1.1971
4.9115 3.3826 1.1133 2.9679 4.6459 1.9361 -1.3001 4.8982 -0.8209 4.3464 -0.1874 2.2374 -1.9010 3.7999 1.0785 4.7708 -1.9006 0.8021 1.9675 0.4570 -1.3677 -1.5671 2.2266 -1.9123 -1.6691 0.7257 -2.0725 1.6220 -4.3776 2.1488 2.7555 3.2044 -0.0609 1.8026 -1.8844 2.0634 0.3871 -5.1414 2.3595 0.5985 2.8576 -1.0284 2.0052 0.2607 0.9463 -5.1657 -0.4272 -4.2620 -4.0173 -0.2185 -4.9310 -5.2062 -0.2588 -2.8203 -2.9989 -3.6712 1.7195 -2.5997 -2.4695 1.2592 -2.8193 0.1779 -4.2109 -4.0979 0.1086 -2.1527 -2.0203 -4.6753 2.1126 -1.1830 -2.1672 1.1277 3.4128 3.3567 1.2905 1.1942 -3.1025 1.4123 -0.7835 2.5776 -0.6665 1.4869 2.3816 0.0258 2.5188 -1.0830 1.0034 -1.3779 3.8011 -0.0279 3.9911 -1.1011 1.3036 1.8349 0.9375 -0.2469 -2.8614 0.3539 -2.8772 -0.7119 -4.3877 2.0197 -0.2931 -3.1002 1.4984
4.9296 3.5261 1.1165 2.8655 4.5113 2.0297 -1.7687 3.7526 0.9216 4.2253 -0.0854 2.4684 -1.2858 4.9309 -0.9694 4.7438 -1.8799 1.1702 2.1412 0.4159 -1.3159 -1.4464 2.1524 -2.0360 -1.5804 0.6469 -2.0895 1.4923 -4.2949 2.2897 2.7998 3.2256 -0.0852 1.6846 -1.8073 2.1573 0.2479 -5.0658 2.3872 0.6955 2.7981 -1.1453 1.9848 0.3006 0.9985 -5.1703 -0.5543 -4.0908 -4.0337 -0.4445 -4.8020 -5.1647 -0.2759 -2.6658 -3.0690 -3.6304 1.4020 -2.6353 -2.4311 0.9674 -2.8043 -0.0337 -4.1464 -4.0269 0.1034 -2.0578 -2.1266 -4.6211 1.9024 -1.2144 -2.1196 0.9683 3.4412 3.3372 1.2775 1.1311 -3.0400 1.4861 -0.6997 2.5766 -0.7906 1.5427 2.3835 -0.0345 2.4925 -1.0381 1.1414 -1.2622 3.8903 -0.3292 3.9351 -1.0488 1.5625 1.9151 0.9341 -0.2275 -2.8044 0.2493 -2.8307 -0.8174 -4.3240 1.9330 -0.3580 -3.0399 1.4370
4.3414 4.9631 0.6675 4.6047 2.8087 -0.4954 -2.7960 3.9091 -0.8491 3.8674 -0.4701 1.4604 -1.2215 5.2290 -1.8371 3.1073 -2.3971 2.3818 0.2190 1.4793 1.8661 -0.1069 2.5061 -2.2934 -0.3218 1.0095 -2.4095 -1.0589 -3.0558 -0.5947 2.5938 3.2442 0.8844 1.0377 -2.1149 0.3202 -1.3621 -4.4506 -0.2589 0.4011 3.5338 -0.0761 1.5694 0.2350 0.4424 -4.4300 -0.1519 -2.7734 -3.7917 -0.3489 -1.6059 -3.7288 0.4552 -3.8907 -0.8875 -5.8262 3.1906 -0.4154 -4.7076 3.7746 -2.4029 0.0492 -1.4645 -2.4400 0.8183 -3.7624 -1.2338 -5.8305 1.7765 -0.2203 -3.4967 2.9918 3.6120 3.8541 -0.0495 -0.4021 -2.4469 0.6546 -0.6306 3.0365 -0.9733 1.4798 2.5731 0.1106 1.5432 -0.9916 1.1968 -1.5396 4.1929 -1.2719 2.9019 -1.3779 1.7338 0.9957 1.3982 0.9207 -1.7542 0.6205 -2.4959 -1.0492 -4.7143 1.0525 -0.4808 -3.5347 1.6763
4.0067 0.0396 1.0504 3.6929 2.4571 1.4062 -0.7227 5.0768 0.7517 -1.1711 -2.3431 -1.8164 0.6831 5.2812 -1.0318 -2.7773 -2.6008 -0.2245 -0.8993 0.9716 1.5325 -1.6108 3.5439 -2.0248 -2.6830 2.4808 -2.1211 0.2455 -4.8309 1.9186 2.2056 1.2268 -0.1437 0.4328 -2.6562 0.6863 1.1193 -5.2686 3.0138 0.3282 2.4088 -1.1205 -0.1330 -0.4259 -0.1463 -2.7221 0.7157 -6.0224 -1.8181 0.2885 -5.1227 -3.6759 1.7489 -5.6595 3.1255 -2.8488 5.0517 2.6723 -1.7100 4.4922 -1.7931 0.8649 -3.7905 -3.6492 2.2889 -4.4278 2.6224 -4.1412 4.6078 1.6613 -1.7562 3.4470 2.9885 1.1486 1.1455 0.1735 -3.3016 2.0306 -0.7541 3.3315 -0.7970 0.8245 1.7908 0.1008 -0.6587 -1.6508 0.3996 -0.1592 4.6533 -0.4080 -1.6591 -2.2317 -0.5575 -0.1585 0.7477 0.5763 -2.6591 1.8413 -3.4619 1.7065 -4.1870 3.6263 1.2158 -2.9538 3.0388
4.5326 4.4858 1.4308 3.5305 4.7539 -0.7953 -1.0185 4.8992 -0.3928 0.3543 -1.2207 3.9919 0.2624 4.8128 -2.2760 2.5721 -0.6959 3.9305 -0.0481 1.5892 2.0885 -0.8994 2.0683 -2.2888 -1.5100 0.7406 -1.8921 2.2205 -4.2701 0.2052 2.9329 2.8020 0.5990 2.1246 -2.0747 1.3065 1.4851 -5.3457 0.8801 1.0470 2.3226 -0.8641 1.7510 0.3316 1.3533 -4.8515 -0.3937 -4.3235 -3.6340 -0.8843 -4.6181 -5.0191 0.4941 -3.1867 -2.0975 -4.9539 1.8833 -2.2609 -3.6793 1.4782 -2.4836 -0.5038 -3.8156 -3.9550 0.8458 -2.4430 -0.8071 -5.6123 1.7387 -1.1349 -2.9279 0.9455 3.2810 4.2730 0.6141 1.3669 -2.9983 0.3683 -0.3239 2.7749 -1.0786 1.4367 2.5932 0.5138 1.2996 -0.9398 1.8698 -0.2999 4.2538 -1.3462 1.5165 -0.9226 3.3587 0.9567 1.4602 1.3903 -2.6308 0.3529 -2.7878 0.2307 -4.9187 1.2423 0.0732 -3.5122 0.9197
4.2264 5.0226 2.0372 2.9695 5.6151 0.0088 -1.6512 3.8919 -0.1021 -1.9785 0.6927 2.5050 -0.1992 5.0716 -1.4113 -1.4900 -1.2922 3.4990 2.6313 0.4815 0.8797 -0.2121 2.2846 -2.6187 -0.0614 0.7912 -2.8057 1.8414 -2.4616 0.8329 3.0727 3.2625 0.7647 -0.3637 -1.1741 0.5513 2.0504 -3.8217 1.3379 1.4507 2.7169 -0.9106 0.4460 0.9162 1.5377 -3.6633 -1.4556 -3.2935 -2.8271 -1.3233 -4.3390 -3.3726 -0.7814 -2.0416 -0.7326 -6.3108 1.6158 -1.7292 -5.5350 1.1471 -1.6260 -0.5168 -4.2105 -2.2729 -0.0161 -1.9300 0.6212 -5.7878 1.7223 -1.4560 -4.1772 0.6954 3.0028 4.7040 1.2127 0.4112 -2.4459 0.2825 0.0177 2.6601 -1.1704 1.6935 2.6814 0.5299 0.0153 -0.4381 1.8205 -0.5815 4.0153 -0.9300 -1.2034 -0.4010 2.7093 1.6703 1.2373 0.9816 -1.3613 0.1193 -3.0548 0.8663 -4.5214 1.3483 -0.2044 -3.7039 0.7985
4.1805 5.0246 2.0975 3.0103 5.6151 0.0160 -1.6603 3.8961 -0.1095 -2.0089 0.6505 2.4587 -0.2069 5.0769 -1.4164 -1.4576 -1.2848 3.5173 2.6267 0.4845 0.8732 -0.2061 2.2811 -2.6124 -0.0547 0.7848 -2.7786 1.8393 -2.4517 0.8091 3.0654 3.2667 0.7844 -0.3704 -1.1738 0.5257 2.0526 -3.8082 1.3217 1.4498 2.7317 -0.9027 0.4386 0.9116 1.5278 -3.6697 -1.4476 -3.2610 -2.7002 -1.5539 -4.1872 -3.5068 -0.5393 -2.1404 -0.7195 -6.3089 1.6028 -1.7189 -5.5386 1.1307 -1.4910 -0.7591 -4.0663 -2.3900 0.2011 -2.0320 0.6315 -5.7793 1.7094 -1.4504 -4.1820 0.6726 2.9898 4.7102 1.2246 0.4093 -2.4432 0.2563 0.0180 2.6680 -1.1663 1.6880 2.6859 0.5382 0.0102 -0.4451 1.7991 -0.5873 4.0212 -0.9331 -1.2026 -0.4139 2.6953 1.6647 1.2386 0.9791 -1.3446 0.0972 -3.0387 0.8721 -4.5131 1.3305 -0.2009 -3.7031 0.7744
3.9242 3.7471 2.4975 4.7724 4.6481 0.3693 -0.9107 4.3939 -1.1753 -1.9888 1.7402 2.7115 0.9756 4.4428 -2.4543 -1.6394 0.3106 4.4424 2.3667 0.1098 1.1906 -0.2577 1.5745 -2.5889 -0.8006 0.2387 -2.1307 -0.5159 -2.9546 3.3959 3.3946 2.6097 0.3727 -0.6867 -1.0464 1.7776 -0.4775 -4.3829 3.0657 1.6222 2.0116 -1.1320 0.3443 1.1659 1.6306 -4.1781 -1.1295 -4.3753 -2.9535 -1.2177 -4.9250 -4.3388 -0.5602 -3.0491 0.5108 -5.6264 -0.3259 0.7801 -4.4345 -0.8938 -1.7926 -0.7492 -4.1892 -3.2660 -0.1135 -2.3722 0.0680 -5.7011 1.0587 0.6608 -3.2072 -0.1206 3.6129 3.9478 1.0343 0.1378 -2.2398 2.2048 0.2366 2.3738 -1.4047 1.9183 2.2981 0.2664 -0.1949 0.1745 2.5242 0.1810 3.8329 -1.7553 -1.3279 0.7381 3.3379 1.6011 1.0604 1.0672 -1.9438 -0.1997 -2.9700 -0.0743 -4.5672 1.7643 0.2397 -3.2888 1.1507
4.2516 3.0053 2.7671 3.5425 4.9499 1.4214 1.8880 3.2140 -3.4153 -1.1457 -0.0950 4.2427 0.3019 4.7401 -2.8534 1.0409 0.3122 4.7435 -0.6071 2.2767 1.3905 -0.5014 1.5650 -2.4791 -1.7749 1.3085 -1.7062 0.6584 -1.8349 -0.2755 2.9366 2.6592 0.7117 0.9936 -1.5279 2.2023 0.5767 -3.0703 -1.0612 1.3880 1.9991 -1.0060 1.1556 0.8895 1.9366 -4.7434 -1.1564 -3.5251 -3.8389 -1.7238 -2.7071 -4.6388 0.2521 -3.8611 -0.0644 -6.4005 0.5251 -0.1165 -5.9953 1.8086 -2.7883 -0.9142 -2.1169 -3.6529 0.9978 -3.3320 0.1919 -5.4453 -0.5419 0.0012 -4.5822 2.1350 3.1597 3.5705 1.8936 0.1853 -2.2226 1.1310 0.2982 2.6141 -1.7460 1.4845 2.6516 0.2919 0.3564 -0.1832 2.4634 0.8191 3.6403 -2.7037 0.1675 0.0461 3.9325 0.5640 1.9270 1.2488 -2.6927 0.3923 -2.4236 0.3608 -4.1491 -0.2360 0.2425 -3.7105 1.1443
3.6433 4.2165 -1.7075 2.6093 2.5108 -3.1520 -1.9155 3.8732 2.6159 1.8070 -1.7455 -2.5190 -0.8560 5.3022 1.1911 1.6858 -3.7809 -1.5294 1.4558 0.3897 1.5859 -1.5491 2.9494 -0.5555 -2.1793 1.6027 -0.8379 -2.0051 -2.5089 1.9200 2.5097 2.2799 -0.6885 -0.2297 -2.4723 0.2106 -1.9877 -3.6661 2.8198 0.6184 2.8986 0.6739 0.8454 -0.4279 -0.5056 -2.1967 0.5409 -4.9884 -3.3588 0.5878 -4.3125 -0.9542 0.8776 -4.3180 1.1109 -4.7102 4.6310 1.9591 -3.8266 4.0700 -3.3702 0.9724 -2.9123 -0.9647 1.2274 -3.0202 -0.2834 -4.7558 4.2167 1.5001 -2.9283 3.0208 2.4903 3.2528 -1.8440 -0.5344 -2.1532 1.6596 -0.8342 2.9067 0.7799 1.1044 1.9041 -0.2692 1.0631 -1.8294 -0.2437 -1.1792 4.1690 1.5171 1.5347 -2.5662 -1.4770 1.1637 0.5605 0.4071 -2.2224 1.3012 -2.2922 -0.7091 -3.9242 3.2519 0.2289 -3.0279 2.6014
5.0706 3.1565 1.1257 3.3171 4.8733 1.2603 -0.4507 4.6517 -1.8658 2.5082 0.8441 4.1873 -1.6001 4.1723 0.0368 3.7139 -1.0654 3.9216 2.1679 -0.0510 -0.4472 -1.1377 1.8528 -2.3553 -1.4994 0.3989 -2.1621 0.7315 -3.9002 3.0803 3.0153 2.8971 -0.1936 0.7627 -1.4079 2.7671 -0.0874 -4.9040 2.3902 0.9806 2.3503 -1.3046 1.5513 0.6250 1.6879 -5.1396 -0.7688 -4.0847 -3.9691 -1.0001 -4.7062 -5.1567 -0.1038 -2.7941 -2.0231 -4.0921 -0.7138 -1.6296 -2.8105 -0.8434 -2.7228 -0.5909 -4.0826 -4.0041 0.2814 -2.2181 -1.5179 -4.9045 0.3835 -0.6537 -2.2378 0.0722 3.5808 3.3948 1.1151 0.8754 -2.7482 2.0821 -0.4618 2.3921 -1.1142 1.6486 2.2732 -0.0118 1.9559 -0.5788 2.3588 -0.8964 3.8139 -0.8981 2.8278 -0.3065 3.5504 1.8207 0.8184 0.3460 -2.7399 0.0441 -2.8962 -0.6513 -4.3660 1.2569 -0.1871 -3.0034 1.0693
4.1231 4.3687 0.8858 4.0462 4.8206 -1.5332 -1.3524 4.5051 0.9744 -0.3777 0.6067 3.7365 -0.1453 5.2250 -0.8192 0.6443 -1.3398 4.3126 2.3216 0.0715 -0.3279 -1.7032 2.6288 -1.5629 -2.3825 1.2920 -1.3688 1.4147 -2.7624 0.1920 2.9961 2.7847 -0.6360 -0.3955 -1.2826 1.2743 1.7810 -4.1421 0.5282 0.6521 2.5207 -1.1162 1.0205 0.6998 1.4919 -3.0367 -0.7139 -5.0978 -3.7173 0.4175 -4.8408 -2.1062 -1.2403 -4.1149 -0.4534 -6.3792 2.5350 -1.4671 -5.5124 2.7257 -3.5210 1.1101 -3.5801 -1.9114 -0.5904 -2.9533 0.7261 -5.9796 1.7815 -1.4148 -4.1777 2.1463 3.2887 4.2399 -0.3643 -0.0449 -2.6086 0.6327 -0.6355 2.8559 -0.5179 1.6537 2.3758 -0.0667 0.7428 -0.6170 2.0180 -0.6515 4.3197 -0.1735 0.3592 -0.4991 3.4696 1.7116 0.9185 0.3166 -2.6359 0.6404 -2.6809 0.7919 -4.7369 1.2760 -0.3210 -3.8193 1.4574
4.5645 4.4889 1.4241 3.9260 4.5762 -0.9534 -0.0091 4.4520 -2.4343 1.6055 -0.7307 4.2676 -0.9871 4.8596 -0.4188 3.6288 -0.8241 3.2252 0.2690 1.5961 2.2239 -0.9291 1.7897 -2.0309 -1.3693 0.4510 -1.4819 0.6850 -3.6126 2.7953 3.0968 2.7488 0.4883 2.0080 -2.1611 1.1530 -0.7635 -3.8221 2.7125 1.1267 2.3210 -0.8635 1.8454 0.2575 1.1831 -4.5555 -1.2820 -3.7520 -3.3074 -1.3201 -4.2519 -4.8063 -0.6507 -2.4684 -2.6185 -3.8547 -0.5373 -1.5719 -3.6122 -1.3506 -2.2091 -0.7354 -3.5029 -3.7918 -0.0994 -1.7793 -2.4286 -3.9201 0.9038 -0.2417 -3.4024 -0.8016 3.4587 4.2145 0.4359 1.1525 -3.3948 1.3504 -0.2958 2.6211 -0.9426 1.5956 2.5718 0.4923 1.5651 -0.9444 1.9385 -0.4732 4.0849 -1.2159 2.4081 -0.8315 3.1792 1.1595 1.4367 1.3913 -2.4446 -0.1319 -2.3236 -1.2023 -3.7196 1.4136 -0.0905 -3.4198 0.5310
4.4715 3.5091 2.1185 2.6435 4.9876 1.3852 -1.2351 4.1053 -2.0310 0.2778 1.6470 4.2372 0.7951 4.3323 -3.0411 1.1688 -0.2691 5.0695 2.1135 -0.1077 0.1370 -0.0855 1.3235 -3.0680 -0.6167 0.0028 -2.5577 0.1928 -3.4431 3.2795 3.0438 2.8341 0.2331 -0.2625 -1.1114 2.4652 -0.0464 -4.7227 2.6023 1.5793 2.1039 -1.5053 0.7794 0.9566 1.7125 -4.8174 -0.6413 -3.0497 -4.3987 0.2460 -2.1295 -3.8509 -1.3324 -3.8844 -0.7575 -4.9251 -1.0709 -0.6635 -3.6113 -1.3536 -2.9791 0.4960 -1.9579 -2.5369 -1.0819 -3.7436 -0.5525 -5.4042 0.2886 -0.3059 -2.6589 -0.3129 3.0701 3.5511 1.5614 0.4027 -2.4295 2.1508 0.1908 2.2608 -1.9116 1.6731 2.2631 -0.0593 0.8283 -0.0913 2.6956 -0.0035 3.6681 -2.3974 0.7870 0.3996 4.1170 1.5655 0.8992 0.5755 -2.0838 -0.1227 -2.7495 -0.2668 -4.5210 1.2593 -0.1201 -3.1126 0.9352
4.7397 4.5236 1.3740 3.8261 4.7770 -0.8966 -0.7405 4.3324 -0.3452 -0.9558 1.2306 3.9664 0.3750 4.3831 -2.3334 0.3643 -0.2263 5.1127 2.6710 -0.0349 0.8977 -0.4100 1.5112 -2.2313 -1.0075 0.2205 -1.7184 -1.5098 -3.2827 2.8253 3.4797 2.6692 0.3478 -0.6354 -1.0612 2.0646 -1.6369 -4.4907 2.0015 1.5933 2.0486 -1.0132 0.7970 0.9103 1.8972 -4.3280 -1.0833 -4.0822 -3.1219 -1.6436 -4.2850 -4.4855 -0.0392 -3.0855 0.3106 -4.9560 -1.1648 0.9946 -3.7956 -1.1368 -1.9778 -1.2067 -3.5042 -3.4272 0.3665 -2.3620 -0.6270 -5.2873 -0.1009 0.8479 -2.8843 -0.0128 3.5880 4.1714 0.4657 -0.3035 -2.5231 2.2585 0.1619 2.3089 -1.0834 2.0309 2.2335 0.3647 0.4454 -0.2245 2.7100 -0.0308 3.7717 -1.3567 -0.0223 0.2527 4.0549 1.9004 0.9049 1.0651 -2.1208 -0.2299 -2.5900 -0.7875 -4.4315 0.9218 0.0024 -3.2153 0.9744
4.8809 4.3441 0.8223 3.6993 4.3164 -1.3371 0.2132 4.2514 -2.2583 1.2823 -1.2458 4.6204 -0.6508 4.8452 -0.2385 3.4311 -1.0034 3.8971 0.4284 1.8633 2.5065 -1.0552 1.7507 -1.7799 -1.9608 0.7256 -1.1342 1.0992 -2.4055 -0.9487 3.1807 2.6250 0.3749 1.8391 -1.9335 1.4198 0.0883 -3.3529 -1.4367 1.0615 2.0047 -0.6302 2.1192 0.4497 1.8169 -4.6849 -1.1226 -3.8704 -4.9755 0.0976 -3.3847 -3.4497 -1.7821 -3.4853 -2.2282 -5.1422 0.9012 -1.8066 -4.5764 2.0492 -4.0601 0.7487 -2.4646 -2.5946 -1.1734 -2.6441 -1.6423 -4.7507 -0.3732 -0.8033 -3.5220 2.0246 3.5618 4.0672 0.1451 0.6643 -2.0682 0.4803 -0.3014 2.5131 -0.7153 1.6914 2.4986 0.5859 1.5730 -0.7718 2.3497 -0.2757 3.9839 -1.0236 2.2293 -1.0087 3.6774 1.3380 1.5811 1.7280 -2.9067 0.1467 -2.1208 -0.6861 -3.8079 -0.3938 -0.2993 -3.1460 0.8397
4.6808 4.4885 1.4500 3.9725 4.7385 -0.8935 0.2938 4.3327 -2.2968 -0.9842 1.1761 3.9881 -0.7531 4.3998 -0.2773 0.4290 -0.2009 5.1228 2.6014 -0.0504 0.8061 -0.4548 1.5923 -2.2794 -0.8094 0.1600 -1.9467 -1.4659 -3.2807 2.8541 3.4637 2.6573 0.3346 -0.6110 -1.0634 2.0723 -1.6487 -4.4607 2.0013 1.5552 2.0985 -1.0238 0.8034 0.9231 1.9123 -4.3796 -1.0307 -3.9864 -3.2156 -1.0307 -4.6607 -4.4073 -0.6504 -2.5853 0.2441 -4.9278 -1.1977 0.9798 -3.8003 -1.1480 -1.9881 -0.6434 -3.9882 -3.2719 -0.2883 -1.9621 -0.6972 -5.2436 -0.1326 0.8729 -2.9041 -0.0075 3.6017 4.1571 0.4492 -0.2686 -2.5237 2.2641 0.1135 2.3009 -1.0727 2.0071 2.2473 0.3545 0.4635 -0.2198 2.7190 -0.1676 3.7745 -1.1513 -0.0013 0.2470 4.0684 1.8672 0.9067 1.0298 -2.0179 -0.2658 -2.6967 -0.8173 -4.4028 0.9079 0.0100 -3.2125 0.9719
2.1483 5.2620 -0.0444 2.5194 3.5348 -1.7583 -2.8675 0.6949 1.6661 4.7715 -2.1665 -0.2177 -2.4114 -0.5915 -0.1549 3.6592 -1.3387 -2.0254 1.1569 0.2176 1.9816 -2.6161 2.8038 -0.2966 -2.3905 3.5466 -1.5972 2.7555 -3.5454 2.1059 1.6733 2.9074 0.4871 1.6240 -2.6464 -0.0304 2.1723 -3.6102 3.4510 -0.5722 2.0682 0.8200 1.8926 -0.2423 -0.1712 -3.1957 1.2012 -5.0924 -1.9385 1.6113 -4.8463 -4.2673 1.5575 -4.1794 -1.5181 -3.3742 4.0506 -1.9115 -3.2608 2.7671 -1.6532 2.4032 -3.6636 -4.0054 2.2986 -3.0877 -0.1062 -3.5035 4.3812 -0.9327 -3.3042 1.6912 1.6443 3.9538 -0.6022 1.5640 -3.6020 1.1414 -1.6230 1.6795 -0.1057 0.7087 1.7809 0.1883 2.5665 -1.4773 0.1480 -2.3230 0.4714 0.4449 3.6926 -1.6246 -0.8379 1.2591 0.5147 0.7954 -2.6421 2.7211 -2.8083 0.8016 -3.5132 3.3912 0.3647 -3.4278 2.0088
4.0278 3.5512 3.0680 2.7478 5.2361 1.7787 0.4295 4.4254 -2.8358 0.2743 0.8954 4.5398 1.9278 2.8720 -3.5752 -0.9416 -1.0114 4.3541 -0.6741 2.2839 1.4748 -0.2633 1.2157 -2.2660 -1.4206 0.8714 -1.3553 2.1149 -2.1211 -0.0397 2.8330 2.8806 1.0013 1.0317 -1.5491 2.1759 1.8327 -3.2049 -0.9914 1.5450 1.9610 -0.8177 1.0836 0.8839 2.0170 -4.5074 -1.6186 -2.9372 -3.4831 -2.1880 -2.2765 -4.4977 -0.1905 -3.2006 -1.1483 -5.4407 -0.5724 -1.6410 -4.8911 0.5544 -2.4093 -1.3614 -1.7563 -3.4918 0.5733 -2.7374 0.0718 -4.9251 -1.1791 -1.0228 -3.6993 1.1135 2.8153 3.7913 2.2041 0.8075 -1.9384 0.7348 0.4684 2.4049 -1.6879 1.4415 2.6959 0.4347 0.3014 -0.2503 2.4363 1.0557 3.2221 -2.7951 -0.1780 -0.1874 3.8650 0.5008 1.9406 1.3494 -2.4034 -0.0367 -1.9902 0.6849 -3.8690 -0.6212 0.0870 -3.2218 0.5330
2.3214 4.8089 -1.7205 2.4158 2.6647 -2.9328 -3.1039 2.7415 2.2077 3.0833 -3.0965 -1.2199 -2.1333 4.6574 1.4443 1.2550 -2.3097 -2.3282 1.5348 0.5988 1.7426 -1.8911 2.8056 -0.8998 -2.1324 1.5101 -1.6441 2.6768 -3.1396 2.2684 1.9689 2.6928 -0.5044 0.6803 -2.5523 0.8014 2.5951 -3.4484 3.6983 -0.0743 2.7205 0.7785 1.0541 -0.4257 -0.2880 -2.6846 1.9587 -5.8657 -3.6902 1.4715 -5.1169 -1.4410 2.3642 -5.2352 -0.5800 -4.5909 5.3198 -1.3565 -4.6114 4.2189 -3.5263 1.3399 -3.6799 -1.2886 2.2416 -3.9046 0.8195 -4.2005 5.2278 -0.7915 -4.2991 2.9143 1.7467 3.4173 -1.8104 1.3479 -3.6111 1.6559 -1.4927 2.4971 0.5299 0.7327 1.9111 -0.1244 1.6491 -1.7089 0.0026 -2.2433 3.4400 1.4262 1.9364 -2.3756 -1.3162 1.1522 0.6474 0.5782 -2.3806 1.7286 -3.0911 1.3348 -3.8846 4.0283 0.5054 -3.9631 2.8389
3.8868 3.5648 -0.5931 3.6733 1.5708 -2.0252 -3.2671 3.4753 0.6325 -2.3455 -0.6178 1.5841 -1.7594 5.0411 -0.0559 -1.9168 -2.7930 2.0694 0.1072 -0.6277 -0.9366 -1.2869 2.8548 -2.0292 -2.0107 1.7085 -2.6999 2.2661 -2.0707 4.7940 2.1891 1.8562 -0.0681 0.4675 -1.3663 3.2555 2.2009 -3.4594 5.2631 -0.1091 2.6221 0.1408 0.1924 0.0282 1.2830 -2.3111 2.0614 -6.9506 -1.2536 1.4194 -6.4221 -3.3120 2.6517 -6.0799 1.6662 -6.3244 2.9160 1.5399 -5.6118 1.7797 -1.1195 1.3067 -4.9806 -3.1838 2.5571 -4.7444 1.8752 -5.6511 4.1901 1.5750 -4.1578 1.8190 2.9195 2.5686 -1.1817 1.7997 -2.0910 3.3278 -1.3998 2.6858 -0.5290 0.7517 1.6161 -0.4630 -0.0572 -1.2764 1.8408 -2.1208 3.8769 0.0288 -1.5180 -1.6561 1.8481 0.3187 0.2255 -0.0762 -2.0371 1.8696 -4.1736 1.9016 -4.3085 4.2259 1.6774 -3.5487 3.0106
4.9196 4.3067 0.8146 3.6939 4.2174 -1.3253 0.2362 4.2475 -2.2598 1.2372 -1.2430 4.7191 -0.6382 4.8281 -0.2415 3.3907 -0.9933 4.0004 0.3734 1.8691 2.5148 -1.0625 1.7508 -1.7829 -1.9194 0.6745 -1.1473 1.3321 -2.4742 -0.8696 3.1949 2.5586 0.4452 1.8215 -1.9843 1.5644 0.3120 -3.3554 -1.4542 1.0773 1.9849 -0.6214 2.0536 0.4194 1.8691 -4.6744 -1.1991 -3.8523 -4.9527 0.0324 -3.3873 -3.4626 -1.8763 -3.4262 -2.3369 -4.9324 0.6746 -2.0855 -4.2704 1.8207 -4.0371 0.6855 -2.4671 -2.6082 -1.2653 -2.5856 -1.5703 -4.6520 -0.5316 -1.0397 -3.2623 1.8649 3.5972 3.9881 0.1629 0.7621 -2.0534 0.4890 -0.2823 2.5024 -0.7267 1.6944 2.4599 0.6115 1.5315 -0.7916 2.4504 -0.2496 3.9726 -1.0263 2.1884 -0.9965 3.7825 1.2893 1.5606 1.7548 -2.8892 0.0796 -2.1082 -0.5820 -3.7458 -0.4838 -0.3148 -3.0431 0.7579
-1.2370 4.6479 1.9895 1.1743 4.1708 1.8373 0.7437 -0.2271 -2.9344 -1.5683 -2.3724 0.2971 -1.3851 -0.9487 -2.5528 -0.3967 -4.1175 1.1452 1.9254 0.2275 0.2977 -1.8527 1.9815 -2.8361 -1.3486 3.2403 -3.5054 2.0688 -2.2631 4.9710 -0.4764 2.3786 1.4080 0.5715 -2.1260 3.0198 2.4891 -3.6100 5.3718 -1.1477 1.2518 -0.6431 -0.0192 -0.5283 1.3058 -4.3061 5.1816 -5.9185 -3.4215 4.3558 -6.5061 -4.2659 5.3838 -4.4812 3.8449 -6.0773 2.9090 3.6859 -5.3341 1.7967 -2.4220 3.6729 -5.7035 -3.3440 4.7479 -3.7363 3.4193 -5.5653 4.2038 3.0619 -4.0219 1.8738 -0.1832 3.8523 1.2601 2.0231 -2.2676 3.4333 -0.7411 1.3395 -2.0387 -0.0102 1.6218 0.1858 0.4248 -1.8809 1.5341 -0.5401 -0.0665 -2.5268 -0.5398 -2.9102 0.9925 0.7396 0.3743 0.5886 -2.3940 3.8466 -4.3693 2.8337 -4.3583 4.2725 2.5937 -3.5997 3.0587
3.9259 3.8867 2.4423 4.5470 2.9144 0.2670 0.2535 3.7892 -2.4794 -0.9524 1.2793 4.4886 2.3681 2.9428 -2.5269 -2.0233 -0.7001 4.7543 -1.0219 2.0373 1.3580 0.3227 0.5939 -2.5460 -0.6796 -0.4158 -2.0382 -1.6753 -2.7516 1.5220 2.5727 2.0436 1.4906 0.1058 -1.7479 3.0979 -1.5052 -3.1583 0.1208 1.4399 1.2020 -0.4778 0.4026 0.5232 2.3699 -4.5990 -0.1197 -3.7114 -3.6802 -0.8756 -4.3388 -4.2438 0.6098 -2.5079 1.8754 -3.4651 -1.4628 2.6201 -3.1847 -0.3760 -2.3375 -0.9800 -3.7976 -2.9974 0.5219 -2.0119 0.4236 -3.5228 -1.3705 1.9818 -2.9530 0.9100 3.3937 3.2716 1.1722 -0.2762 -2.8513 2.1397 0.5447 1.6835 -1.5219 1.2805 2.0425 0.7009 -0.5773 -0.4239 2.8399 1.1913 2.8445 -2.2166 -1.2480 0.0093 4.1249 0.0936 1.5355 1.4887 -2.0007 -0.2845 -2.6964 -0.1696 -3.2790 -0.1904 0.6442 -3.0177 0.9827
3.9527 3.5717 -2.6068 3.4470 1.1626 -2.5356 -2.5094 1.5456 0.3258 2.3810 -0.0297 4.4017 -2.2839 3.7873 0.6770 4.0150 0.1342 2.8214 0.9912 2.2153 2.0288 -1.3604 3.4529 -2.1751 -1.2318 2.6655 -3.4631 0.6587 -2.7082 3.8146 2.6586 2.6575 -0.7202 2.0915 -2.0020 1.7815 -0.6379 -3.3942 3.7726 0.3217 3.1906 -0.4437 1.8051 0.2755 1.0496 -3.9238 -0.6632 -3.6606 -2.5978 -0.8871 -3.6293 -4.4309 0.6974 -3.6443 -1.8544 -5.1945 0.7209 -0.7743 -4.9956 -0.0593 -1.6754 0.2320 -3.5666 -3.5767 1.7353 -3.5979 -1.8896 -4.6727 2.0797 0.3830 -4.2791 0.4554 2.9286 2.5402 -2.2026 1.3777 -3.1114 2.5224 -0.9152 2.6451 -0.9767 1.2917 2.1054 -0.3753 1.7676 -0.5877 2.2118 -1.9575 2.7632 0.0959 2.8626 -0.1219 3.1367 1.3236 1.5714 1.0385 -2.1441 1.4930 -3.5350 -0.8316 -3.9916 2.5493 0.3378 -3.8029 1.7088
3.4210 3.8825 2.8403 4.0958 3.1346 0.5954 2.7347 2.2022 -2.7482 -1.6041 1.0815 4.1766 1.3239 3.9014 -2.1925 -2.9276 -0.7570 4.0608 -1.3296 1.7990 1.0216 0.4213 0.5388 -2.5226 -0.7124 -0.3009 -1.9734 -1.4703 -3.2609 1.2542 2.1780 2.0660 1.7330 -0.3487 -1.8775 3.1058 -0.9527 -3.6244 -0.0717 1.4360 1.1367 -0.3838 -0.0067 0.3569 2.2549 -4.5357 0.1782 -3.8208 -3.8622 -0.9735 -3.9922 -3.9336 1.2681 -3.0743 2.6338 -3.0977 -1.0237 3.0678 -2.5940 0.1484 -2.5400 -1.1327 -3.4141 -2.7054 1.1237 -2.5445 1.2415 -3.4906 -1.1884 2.1637 -2.4924 1.2846 2.9214 3.3635 1.5158 -0.2245 -3.0030 2.1065 0.7519 1.6551 -1.5597 1.0359 1.9501 0.7539 -1.0171 -0.6212 2.5888 1.6085 2.7113 -2.1927 -1.9503 -0.1278 3.6738 -0.2242 1.3658 1.3433 -1.9763 -0.1211 -2.7290 0.3957 -3.3595 -0.1532 0.8903 -2.8814 1.1268
3.0849 3.8215 1.1840 3.6299 2.2357 -0.6177 -3.5791 2.1982 0.2347 -1.4734 -3.2859 -0.1741 -3.3186 0.5466 -1.3094 -2.7720 -1.7838 0.9471 0.5901 -0.6892 -1.1319 -1.7952 3.5965 -1.6042 -0.7804 3.9074 -2.6862 0.7399 -2.1590 4.9800 1.5854 1.9234 0.7443 -0.4192 -2.1165 2.7947 1.3073 -3.4627 5.3453 -0.7540 2.1842 0.1184 -0.2159 -0.4448 1.0275 -1.8905 2.3759 -6.5302 -1.2083 1.5841 -5.6835 -2.2472 3.7264 -6.1330 3.3756 -5.4662 2.9522 3.3127 -4.6229 1.9033 -0.8142 2.0875 -4.3800 -1.8909 4.1905 -4.9217 2.6875 -5.1494 4.1960 2.5149 -3.4092 1.9837 2.5069 2.9363 0.1078 0.9421 -2.0158 3.4606 -1.5914 2.1982 -1.0690 0.4941 1.5121 -0.2158 -0.3669 -1.8525 1.3050 -2.9019 1.5481 -0.7426 -1.6784 -2.2698 0.7009 0.3028 0.0158 -0.1663 -1.1618 3.3320 -4.0030 1.9612 -4.0223 4.2745 1.8239 -3.1705 3.1086
2.0122 3.7170 -3.4710 2.0352 1.2545 -3.3814 -2.1749 2.9161 1.9914 4.5870 -0.7898 2.4908 -2.3792 0.7349 1.3730 4.6933 -0.6592 0.2179 1.8768 1.7702 1.7767 -2.2688 3.3541 -0.8368 -2.0281 3.4394 -2.3291 2.0863 -2.8124 3.5046 1.8836 2.5783 -1.2932 2.2608 -2.4377 0.9551 0.8559 -3.1218 4.2419 -0.0752 2.8109 0.1055 1.9286 -0.1051 0.4086 -3.7111 0.2087 -4.5822 -2.3748 0.3538 -4.5336 -4.5689 1.1366 -3.8668 -2.1887 -4.5262 2.5707 -1.6939 -4.6156 1.3208 -1.7923 1.4358 -3.7613 -4.0296 2.1433 -3.1561 -1.3633 -4.0159 3.6561 -0.3174 -4.2318 1.0453 1.4800 2.5061 -2.7471 1.8690 -3.3623 2.0889 -1.4083 2.3016 -0.1730 0.8793 1.8500 -0.4288 2.5589 -1.0071 1.3459 -2.0291 1.8813 1.1272 4.0465 -0.7928 1.2458 1.6020 1.2005 0.7253 -2.5845 2.2867 -3.0841 -0.0997 -3.6393 3.3993 0.4327 -3.7628 2.0539
3.7256 4.4178 -2.0932 3.9095 1.9646 -2.1415 -1.7758 0.2525 0.3718 3.0871 -0.6968 4.2644 -2.1267 2.2219 1.4650 4.5001 -0.1760 2.5536 1.2893 2.1013 2.2716 -1.8663 3.0649 -1.4126 -1.8808 2.7289 -2.8881 0.5305 -2.5912 3.3981 2.5836 3.1028 -0.3761 2.2139 -2.0492 1.5189 -0.8736 -2.9732 3.2157 0.1731 2.9883 -0.1157 2.1707 0.3200 1.0729 -3.9196 -0.9228 -3.8091 -2.6031 -0.8187 -4.0651 -4.6350 0.1912 -3.2130 -2.2033 -4.2060 -0.0606 -1.0592 -4.1323 -0.7683 -1.8982 0.4085 -3.7439 -3.9851 1.3331 -2.9253 -2.2261 -3.8290 1.3453 0.1823 -3.7381 -0.1196 2.9948 3.1247 -1.8282 1.2492 -3.0467 2.1203 -0.9137 2.1754 -0.6443 1.3955 2.1950 -0.1458 2.1517 -0.6667 2.1229 -1.6642 1.5963 0.5225 3.3861 -0.4694 2.9601 1.5796 1.5599 1.2095 -2.5587 1.4403 -3.1877 -1.0878 -3.4345 1.9381 0.1547 -3.4369 1.1875
2.0842 3.5057 -3.5840 1.4833 1.1154 -3.5188 -2.0516 3.0869 2.4058 4.6561 -0.7201 0.2310 -1.5381 4.8592 1.0667 4.6524 -1.6874 2.2865 2.4302 1.5543 1.6702 -1.6617 2.6051 -0.8991 -2.4333 1.3130 -1.0468 2.2002 -3.7198 2.9162 2.1195 2.2991 -1.4339 2.1967 -2.6792 0.5724 1.0779 -3.8177 3.8569 0.4833 2.9283 0.2346 2.0365 -0.2877 0.3110 -4.0133 0.5910 -4.9563 -2.8255 0.0550 -4.6220 -4.7153 1.4443 -4.0142 -2.4909 -3.4708 2.7707 -2.2706 -3.2752 1.4560 -2.2566 0.3119 -3.3108 -4.1833 1.6930 -2.8043 -1.3747 -3.6645 3.6851 -0.9151 -3.2915 0.9260 1.4224 2.4232 -2.7691 1.5586 -3.6638 1.5258 -0.9218 2.5968 0.4218 1.1584 1.7936 -0.3792 2.5426 -1.3325 1.1723 -1.5108 3.6602 1.3020 4.0455 -1.2636 1.3110 1.9318 1.0414 0.6741 -2.9010 1.1110 -2.4408 -0.1209 -3.6481 3.2034 0.1045 -3.4666 1.7797
0.4411 5.0928 0.9802 2.4182 3.7827 0.3219 0.0230 -0.4562 -3.0164 4.1111 -0.8568 3.5384 -1.7594 -1.1402 -1.7706 4.6190 0.1989 1.5841 -0.2502 -0.4266 1.6137 -2.3853 1.7584 -2.3184 -2.1084 2.8635 -3.3114 1.8331 -4.4951 0.3596 0.3441 2.6351 1.0466 2.7702 -2.3674 1.1761 1.9656 -5.6209 1.2904 -1.1040 1.2887 -0.3405 1.9313 -0.0977 0.8999 -5.5915 4.5906 -5.1001 -5.1937 5.0285 -3.8920 -4.8711 3.5130 -5.7546 0.8684 -5.3691 4.8574 0.5012 -4.0729 4.8451 -4.0304 4.4387 -3.2535 -3.8036 2.9544 -5.1563 1.4279 -5.9878 3.6641 0.7026 -3.2643 3.6520 0.9094 3.8255 0.3085 1.5433 -3.2584 1.2260 -1.0830 1.1982 -1.7927 0.2652 1.4247 0.1417 2.5282 -1.0251 1.8285 -1.0106 -0.2571 -2.1613 3.8550 -0.4697 2.2623 0.5836 0.2036 0.9696 -3.3695 3.4311 -3.8528 1.6116 -5.2408 2.5629 1.3075 -3.8223 2.5919
2.3569 4.2478 -3.1358 1.4215 2.0075 -3.5468 -0.9926 3.4165 3.2966 4.0586 -1.2978 -1.3770 -0.7744 5.0002 1.6715 4.4200 -2.8349 0.2532 2.8394 0.9969 1.3723 -1.3833 2.4771 0.1285 -1.7629 1.0133 0.0554 -0.8544 -3.6108 -0.6118 2.3496 2.5810 -1.3234 1.4041 -2.7567 -0.1294 -1.5091 -4.3471 0.4745 0.9938 2.9690 0.6343 1.8920 -0.3539 -0.2646 -3.5116 -0.3369 -3.6129 -2.4144 0.4389 -3.6696 -4.0927 -0.6778 -2.3268 -1.7050 -2.9789 3.9496 -0.9837 -1.8590 3.7477 -1.8037 0.9199 -2.4437 -3.5427 -0.2090 -1.1924 -1.9094 -3.9292 2.8659 -0.3702 -1.6043 2.4531 1.5923 3.1017 -2.5222 -0.0724 -2.4678 0.0573 -0.3171 2.6618 1.1895 1.4020 1.9541 -0.3252 2.3349 -1.6241 0.2547 -0.7058 3.8365 2.0396 3.7070 -1.9834 -0.2631 2.1230 0.8421 0.3892 -2.3597 0.6349 -1.2514 -1.3396 -3.6954 1.6721 -0.4906 -2.5320 1.4909
2.0314 3.2318 -3.7608 1.8152 0.7940 -3.4847 -2.2586 0.9718 1.5264 4.7093 -0.0445 0.4778 -1.7327 3.0947 2.1703 4.9146 -1.2362 2.3988 2.0370 1.8447 1.6712 -2.1364 3.3363 -0.8148 -1.9932 3.2411 -2.3190 1.6650 -2.4427 3.6060 1.9580 2.2749 -1.5007 2.4457 -2.4070 1.1489 0.2909 -2.6570 4.0732 0.1087 2.8112 -0.0344 2.0784 -0.1304 0.4556 -3.9032 -0.1431 -4.1179 -2.5657 -0.0228 -4.1936 -4.6824 0.8500 -3.3997 -2.3404 -4.2217 1.9134 -1.5896 -4.4178 0.8120 -1.9051 1.1079 -3.5678 -4.0707 1.8997 -2.8228 -1.7616 -3.6119 3.1021 -0.1766 -4.0694 0.8145 1.4365 2.1373 -2.9108 1.7566 -3.1701 2.2575 -1.2646 2.3343 -0.0904 0.9651 1.7290 -0.4990 2.7174 -0.9523 1.4524 -1.7563 2.2151 1.3221 4.2144 -0.7666 1.5098 1.7326 1.1875 0.6810 -2.6244 2.0274 -2.8991 -0.4653 -3.2605 3.0958 0.3499 -3.5343 1.9265
2.6275 3.2729 -3.4481 2.5511 0.8346 -3.1176 -1.9990 0.3363 0.9177 4.6701 0.4588 1.6649 -1.9014 2.3469 1.9903 4.5409 -0.9921 3.4042 1.7826 2.0170 1.9482 -2.1610 3.1755 -0.8741 -2.2224 3.1481 -2.3865 1.0172 -2.3770 3.6649 2.2181 2.3763 -1.2019 2.5616 -2.2165 1.6093 -0.4338 -2.5941 3.6530 0.0960 2.7608 -0.0911 2.2113 0.0324 0.8289 -3.7953 -0.4967 -3.9947 -2.5314 -0.1377 -4.2829 -4.6090 0.3392 -3.1297 -2.2373 -3.9176 0.6474 -1.1754 -4.0361 -0.1732 -1.9848 1.0903 -3.7353 -4.1076 1.4833 -2.6315 -2.0681 -3.4275 2.0080 0.1629 -3.7277 0.3084 1.9713 2.1562 -2.6755 1.5340 -3.0199 2.3717 -1.2001 2.1443 -0.3270 1.1174 1.7599 -0.3680 2.6193 -0.7496 1.9694 -1.7276 1.6634 0.9923 4.0282 -0.4548 2.4297 1.7128 1.3148 0.9444 -2.7391 1.8684 -2.9382 -0.8376 -3.1127 2.4446 0.3088 -3.3190 1.5780
2.3550 3.9566 -3.3332 1.6204 1.6039 -3.4388 -1.6778 3.1295 2.9086 4.7069 -0.5435 -0.0873 -1.5353 4.7661 1.3278 4.7743 -2.3210 1.3208 2.4864 1.5162 1.7457 -1.6546 2.1888 -0.2742 -1.5441 0.7179 -0.6199 1.3175 -2.6203 2.9642 2.2781 2.6165 -1.2694 1.9548 -2.5220 0.4773 -0.0392 -2.4707 3.4987 0.5649 3.0448 0.3984 2.1304 -0.1470 0.1620 -3.7663 -0.4879 -4.0809 -3.8406 -1.2202 -2.9554 -2.9482 0.7111 -4.1125 -3.0980 -3.1420 1.4463 -2.4844 -3.4662 0.2918 -3.1222 -0.7948 -1.7679 -2.2676 1.0928 -3.0172 -2.3173 -2.7759 2.6185 -1.0316 -3.4725 0.2062 1.6171 2.8619 -2.6055 1.1452 -3.2072 1.5558 -0.7144 2.5257 0.8661 1.2920 2.0010 -0.3048 2.6500 -1.2546 0.9195 -1.3410 3.6142 1.6877 4.1380 -1.4458 0.7460 2.0281 1.1311 0.6761 -2.3763 0.3248 -1.7863 -0.9768 -2.7630 2.5368 -0.3234 -3.1481 1.2987
2.9819 3.3403 -3.4420 2.7569 0.9006 -3.1915 -1.8501 1.3953 1.8442 4.5695 0.1753 1.7940 -1.5344 3.6542 1.8783 4.0984 -1.2287 3.5128 1.8623 2.0465 1.8649 -1.9955 3.0042 -1.0676 -1.7716 2.5338 -2.4891 0.6483 -2.4034 3.4738 2.4337 2.4049 -1.2508 2.2329 -2.2492 1.4524 -0.8152 -2.4946 3.4305 0.3059 2.9535 -0.2309 2.1613 0.0461 0.7334 -3.5102 -1.2379 -3.5133 -4.2088 -0.1128 -3.7505 -2.2058 -1.1623 -2.8815 -2.6721 -3.5350 0.3479 -1.6101 -3.7204 -0.4598 -3.6557 1.1771 -3.3770 -1.6952 0.0302 -2.5290 -2.4851 -3.1097 1.7274 -0.2590 -3.5239 0.0446 2.2298 2.2397 -2.7370 1.1329 -3.0132 2.1524 -1.0172 2.3587 -0.1116 1.2517 1.8714 -0.4748 2.3798 -0.8052 1.8763 -1.4855 2.5812 1.2952 3.7537 -0.6516 2.4886 1.7651 1.3636 0.8502 -2.4528 1.2462 -2.7782 -1.2401 -2.9090 2.1898 -0.0999 -3.1656 1.3278
2.4852 3.6354 -3.1638 4.3248 2.0856 -2.6274 -1.8063 1.5997 1.8541 3.4736 -0.7893 3.8515 -1.6009 3.8605 1.6331 4.6214 -0.7649 1.8800 1.7138 2.0499 1.9900 -1.8487 2.9169 -1.2243 -1.6358 2.2459 -2.5645 0.1123 -2.1250 3.2282 2.6686 2.6897 -0.9132 1.9321 -2.2172 1.4110 -1.3308 -2.1867 2.9802 0.3832 3.0268 -0.2588 2.1465 0.1079 0.7980 -3.2817 -1.6559 -3.1718 -4.0627 -0.7099 -2.6203 -1.8888 -1.3678 -3.4644 -2.7663 -3.6184 -0.1661 -1.6079 -3.9157 -0.7864 -3.5311 0.6206 -2.3853 -1.3855 -0.1472 -3.2098 -2.7617 -3.0093 1.1554 -0.3374 -3.6972 -0.1116 2.8715 2.4062 -2.3796 0.7656 -2.9105 2.0803 -0.9150 2.3749 -0.1643 1.4145 2.0080 -0.4137 2.1874 -0.8134 1.9050 -1.4711 2.7308 1.1846 3.5675 -0.7735 2.4976 1.7439 1.4215 0.9369 -2.2414 0.8918 -2.6596 -1.5891 -2.7824 1.7687 -0.3499 -3.1879 1.1301
2.2023 3.9583 -2.4841 3.2840 1.8332 -1.8678 -2.9596 -0.0927 0.1264 2.2409 0.5898 4.7293 -1.4389 -1.5702 -0.7012 3.7275 1.1994 3.1130 0.0269 1.5930 2.1113 -2.4470 1.3326 -2.2906 -1.8876 1.7596 -3.6289 1.9151 -2.6311 4.5916 1.3560 2.6736 -0.5574 2.8964 -1.6583 2.4141 0.8783 -3.6618 4.7208 -0.8628 1.7130 -0.4981 1.7221 0.1828 1.3859 -4.7181 4.0138 -5.9191 -3.9635 4.6509 -5.0057 -4.5689 2.5824 -6.1126 -0.0503 -5.9380 1.8935 0.8245 -5.4721 0.9808 -2.9994 3.9070 -4.2142 -3.6822 1.8908 -5.3747 -0.1011 -5.3598 3.2287 1.7543 -4.4075 1.3280 1.9701 2.5727 -1.9346 2.5767 -2.8883 3.2337 -1.3607 0.7199 -1.4378 0.5442 1.4350 -0.2486 2.0028 -0.4605 2.6507 -1.9047 -0.4397 -0.6512 2.7697 0.5360 3.4809 0.7000 1.0966 1.2133 -2.8764 2.5767 -4.3775 0.7360 -4.3572 3.5425 1.6934 -3.8799 2.5597
1.8567 2.5701 -3.6814 2.3899 0.2650 -2.9969 -2.9332 1.8745 1.2405 4.3220 0.5193 3.6956 -2.4822 -0.3534 1.1287 4.8272 0.5510 1.4726 1.1829 1.9381 1.8715 -2.5557 1.7695 -1.5872 -2.2527 1.2811 -2.9846 1.6638 -1.9388 4.3819 1.6565 1.9366 -1.3159 3.0272 -1.9320 2.1943 0.3793 -2.6110 4.6023 -0.5332 1.9856 -0.2707 2.1142 -0.0186 1.0441 -4.4728 3.3455 -6.0022 -5.0176 2.2648 -5.4150 -3.1617 3.8141 -5.5893 -0.8890 -5.2992 2.3223 0.1417 -5.3132 1.4546 -4.2896 1.5627 -4.3735 -2.4909 3.1707 -4.6171 -0.8843 -4.3907 3.4601 1.3036 -4.4668 1.6824 1.4941 1.4516 -2.7374 2.3656 -2.7478 3.2821 -1.6383 1.0972 -0.5956 0.6977 1.2188 -0.3918 2.7511 -0.4492 2.2637 -2.3788 0.7766 0.6705 4.0712 0.2607 2.3869 1.3292 1.1153 0.9734 -3.0802 2.0033 -3.9819 0.1718 -3.5838 3.6523 1.3144 -3.6677 2.7604
1.7222 4.5719 -1.1023 2.9810 2.5493 -1.7322 -2.7982 -0.9934 -1.2666 4.0540 -0.8174 0.1590 -3.7540 0.5572 0.1026 4.2359 -2.5661 1.5883 -0.2402 0.1322 1.6825 -2.6872 2.3176 -2.0437 -1.9551 2.7482 -3.2926 -0.4220 -4.2509 2.1706 1.1375 2.4079 -0.0967 1.3939 -2.8763 1.2387 0.0489 -5.4726 2.8321 -1.1443 1.7305 -0.3033 1.4699 -0.6426 0.3204 -3.8265 5.7537 -5.6799 -3.1990 6.1220 -4.5488 -3.9332 4.3486 -6.0277 2.6025 -5.3573 5.5532 2.8768 -4.0396 5.4909 -2.5849 5.1165 -3.7009 -3.3863 3.4144 -5.2300 1.6635 -5.9576 4.6181 2.2669 -3.2043 4.4659 1.6232 3.0870 -1.3527 0.6087 -3.1607 2.5034 -1.9392 1.1784 -1.3887 0.2238 1.2445 -0.4183 2.0700 -1.5243 1.2935 -2.9385 0.2545 -0.7554 3.5469 -1.7192 1.0328 0.4299 0.2034 0.6563 -2.6907 3.8129 -4.0176 1.0887 -5.1850 3.6816 1.4553 -3.7836 3.5676

>  <OB_ATOM_TYPES> (1tmnA1)
C.3 C.3 O.co2 O.co2 O.co2 O.co2 O.2 C.3 C.3 C.3 C.3 C.3 N.pl3 N.3 N.am C.ar C.ar C.ar C.ar C.ar C.ar C.ar C.ar C.ar C.3 C.3 C.3 C.3 C.3 C.2 C.2 C.2 C.ar C.ar C.ar

>  <ENSEMBLE_RMSD> (1tmnA1)
2.052 2.065 2.067 2.133 2.171 2.201 2.274 2.361 2.463 2.612 2.709 2.728 2.750 2.810 2.829 2.866 2.870 2.909 2.922 2.945 3.013 3.016 3.028 3.096 3.134 3.152 3.153 3.161 3.165 3.177 3.186 3.217 3.244 3.266 3.305 3.326 3.335 3.370 3.380 3.380 3.416 3.431 3.447 3.519 3.522 3.610 3.637 3.668 3.685 3.715

$$$$
