
 OpenBabel03071213D

  9  9  0  0  0  0  0  0  0  0999 V2000
   30.4080   15.5270   14.6230 N   0  0  0  0  0
   29.0060   12.9520   20.2340 F   0  0  0  0  0
   29.1690   15.7050   15.2980 C   0  0  0  0  0
   29.4740   12.9380   17.8740 C   0  0  0  0  0
   28.7230   14.9550   18.9610 C   0  0  0  0  0
   29.5030   13.6110   16.6670 C   0  0  0  0  0
   28.7710   15.6060   17.7440 C   0  0  0  0  0
   29.0770   13.6200   19.0180 C   0  0  0  0  0
   29.1540   14.9450   16.6050 C   0  0  0  0  0
  1  3  1  0  0  0
  2  8  1  0  0  0
  3  9  1  0  0  0
  4  6  1  0  0  0
  4  8  2  0  0  0
  5  7  2  0  0  0
  5  8  1  0  0  0
  6  9  2  0  0  0
  7  9  1  0  0  0
M  END
>  <MOLID> (1tnhA1)
1tnhA1

>  <SMILES_CANONICAL> (1tnhA1)
NCc1ccc(cc1)F	

>  <FINGERPRINT> (1tnhA1)
0000000000000000000000000000000000000000000000000000000000000000000000000001000000000001000000000000001000000001000001100000000000000000000000000000000000000000000000000000000000000000000100000000000000000000000000000000000000000000000000000001000000000000000000000000000000000000000000000000000000000000000010000100000000000000000000000000000000000000010000000000000010000000000000000000000000000000000010000000000000000000000000000001000000000000000000000000000000000000000000000000000000000000000000000000000000000000000000000000000000000000000000100000000000000001000000000000000000000000000000000000000000000000000100000000000000000000000000000000000000000000000000000000100000000000100000000000000000000000000000000000000000000000000000000100000000000000000000000000000000000000000000000000000010000000000000000000000000000000000000000000000000000000000000000000000000000000000000000000000100000000000000000000000000000000000000000000011010000000000000000000000000000100000000000000000000000000000000000000001000000000

>  <MACCS166> (1tnhA1)
000000000000000000000000000000000000000001000000010000000000000000000000000100000101001000000000001100000010000000000000000000000010010001000100000000101010010010101000

>  <OB_MW> (1tnhA1)
125.064

>  <OB_logP> (1tnhA1)
1.9847

>  <OB_PSA> (1tnhA1)
26.02

>  <OB_MR> (1tnhA1)
34.0734

>  <OB_ATOMIC_CHARGES> (1tnhA1)
-0.1262162444 -0.204172095 0.1356212308 0.0293598425 0.0293598425 -0.0005169701 -0.0005169701 0.1401249987 -0.003043635

>  <MCT_HBD> (1tnhA1)
1

>  <MCT_HBA> (1tnhA1)
1

>  <ENSEMBLE_TOTAL> (1tnhA1)
2

>  <ENSEMBLE_COORDS> (1tnhA1)
1.1541 1.0982 -2.8241 -0.2479 -1.4768 2.7869 -0.0849 1.2762 -2.1491 0.2201 -1.4908 0.4269 -0.5309 0.5262 1.5139 0.2491 -0.8178 -0.7801 -0.4829 1.1772 0.2969 -0.1769 -0.8088 1.5709 -0.0999 0.5162 -0.8421
0.8728 0.8985 -3.1353 -0.3592 -1.5398 2.7371 0.0974 1.4227 -2.0257 0.3064 -1.4702 0.4970 -0.6494 0.5128 1.5240 0.4291 -0.7241 -0.7422 -0.5265 1.2018 0.3743 -0.2131 -0.8675 1.5782 0.0425 0.5657 -0.8073

>  <OB_ATOM_TYPES> (1tnhA1)
N.3 F C.3 C.ar C.ar C.ar C.ar C.ar C.ar

>  <ENSEMBLE_RMSD> (1tnhA1)
0.000 0.214

$$$$
