
 OpenBabel03071213D

 15 15  0  0  0  0  0  0  0  0999 V2000
   -1.6470   12.3980   15.6330 N   0  0  0  0  0
   -1.9200   14.7000   22.0680 O   0  0  0  0  0
   -2.1680   16.6360   23.9480 O   0  0  0  0  0
   -2.8740   14.1560   15.0060 N   0  0  0  0  0
   -0.0760   17.2260   23.5490 O   0  0  0  0  0
   -1.0050   16.5740   20.6920 C   0  0  0  0  0
   -2.0530   16.2860   18.3890 C   0  0  0  0  0
   -0.5210   14.6190   19.1210 C   0  0  0  0  0
   -2.3150   15.5780   17.2160 C   0  0  0  0  0
   -0.7870   13.9200   17.9280 C   0  0  0  0  0
   -1.0930   15.7130   21.9740 C   0  0  0  0  0
   -1.9680   13.6800   15.8070 C   0  0  0  0  0
   -1.1290   16.6020   23.2430 C   0  0  0  0  0
   -1.1980   15.7930   19.3660 C   0  0  0  0  0
   -1.7080   14.3790   16.9900 C   0  0  0  0  0
  1 12  1  0  0  0
  2 11  1  0  0  0
  3 13  1  0  0  0
  4 12  2  0  0  0
  5 13  2  0  0  0
  6 11  1  0  0  0
  6 14  1  0  0  0
  7  9  1  0  0  0
  7 14  2  0  0  0
  8 10  2  0  0  0
  8 14  1  0  0  0
  9 15  2  0  0  0
 10 15  1  0  0  0
 11 13  1  0  0  0
 12 15  1  0  0  0
M  END
>  <MOLID> (1tppA1)
1tppA1

>  <SMILES_CANONICAL> (1tppA1)
OC(=O)[C@H](Cc1ccc(cc1)C(=N)N)O	

>  <FINGERPRINT> (1tppA1)
0000000000000000000000000000000000000000000000000000000000000000000000000000000000000001000000000000000000000001000001100000000000000000000000000000000001000000000000000000000000000000000000000000000000000000000000000000000000000000000000000001000000000000000000000000000000001001000000000000000000001000000010000100001100001000000100000000000000000000010000000000000011011000000000001000010000000000100010000000000000000000000000000000000000000000000000000000010000000000000000000000000000001000000000000000100000001000000000000000000000000000000000100000000000000000000000000000000001000000000000000000100000000000000000000000000000000001000000000000000000000001000000000000100000000000100010100000000000000101000000000000000001000000000000000100000000000000000100000000000000000000000010000000000010000000000000000000000000000000010000000000000000000000000000000000000000000000000000000000000000000000000000000000000000001000000000000000011000000000000000100100000000000100000000000000000000000000000000000000010000000000

>  <MACCS166> (1tppA1)
000000000000000000000000000000000000010000100000010001000000000000000001000111000001000001000000001000010000000000000010001000000011000100110100010000110111111010111000

>  <OB_MW> (1tppA1)
208.085

>  <OB_logP> (1tppA1)
0.7587

>  <OB_PSA> (1tppA1)
107.4

>  <OB_MR> (1tppA1)
55.2197

>  <OB_ATOMIC_CHARGES> (1tppA1)
0.2047061662 -0.2105468093 -0.2428206274 0.2047061662 -0.2428206274 0.0710276165 -0.0039162733 -0.0039162733 0.0076710612 0.0076710612 0.2582632414 0.476608146 0.3949509472 -0.019041482 0.097457687

>  <MCT_HBD> (1tppA1)
4

>  <MCT_HBA> (1tppA1)
5

>  <ENSEMBLE_TOTAL> (1tppA1)
50

>  <ENSEMBLE_COORDS> (1tppA1)
-0.1482 -2.9712 -3.5917 -1.4198 0.6768 2.6678 0.1119 0.5960 4.8745 -0.9829 -1.0370 -4.6165 1.4952 2.0042 3.7454 0.4146 1.3271 1.2948 -0.7981 0.9354 -0.8246 1.1279 -0.4556 -0.3379 -0.9876 0.1881 -2.0523 0.9734 -1.1306 -1.4926 -0.0151 0.5436 2.5204 -0.4401 -1.6206 -3.5828 0.6172 1.1532 3.7453 0.1896 0.5957 0.0227 -0.1381 -0.8049 -2.3726
0.1367 -1.8657 -4.5786 -0.3290 -0.5728 3.0990 -0.9815 1.8838 4.2892 -2.0081 -1.3173 -3.8085 1.1947 2.2754 3.7462 1.0520 0.5630 1.5219 -0.3013 0.8165 -0.5565 1.2851 -1.0112 -0.4241 -0.7143 0.3245 -1.8563 0.8989 -1.4757 -1.6283 -0.1267 0.6787 2.4689 -0.7155 -1.3414 -3.6262 0.1423 1.6859 3.5532 0.6294 0.1532 0.1543 -0.1627 -0.7969 -2.3542
0.7204 -2.2709 -4.1180 0.7869 -0.6120 2.9190 -0.3297 2.4832 3.6690 -1.3010 -1.1519 -4.5238 1.4289 1.4155 4.6272 -0.5476 0.8317 1.5746 -0.6053 1.0947 -0.9019 -0.0466 -1.0761 0.0119 -0.5397 0.5111 -2.2344 -0.0006 -1.6232 -1.2143 0.6998 0.7238 2.4332 -0.2935 -1.4120 -3.7371 0.6495 1.5497 3.6917 -0.3536 0.3362 0.1820 -0.2677 -0.7997 -2.3791
-1.3560 -2.4706 -3.8263 -0.8475 -0.2583 2.8681 -0.2716 2.0840 4.1399 0.5813 -1.3626 -4.5429 1.8141 1.1791 4.2711 0.0363 1.3617 1.3349 -1.2726 0.3845 -0.5373 1.1356 0.1121 -0.5574 -1.3340 -0.3453 -1.7912 1.0787 -0.5995 -1.6987 0.3212 0.4600 2.5194 -0.3179 -1.5800 -3.6229 0.7253 1.2670 3.7207 -0.0866 0.6020 0.0605 -0.2063 -0.8342 -2.3379
-0.8927 -0.8040 -4.7334 -1.2496 0.4109 2.4729 -0.2803 1.0234 4.8575 -0.5026 -2.8526 -3.6609 1.3146 2.2477 3.7997 0.7488 1.0991 1.3408 -0.5456 0.9301 -0.7635 1.1325 -0.7598 -0.3155 -0.8650 0.2431 -2.0009 0.8593 -1.3838 -1.4766 0.1612 0.4760 2.5966 -0.5438 -1.5486 -3.6216 0.4701 1.3631 3.7791 0.3851 0.4264 0.0674 -0.1920 -0.8710 -2.3415
-0.5332 -2.6461 -3.8206 -0.8290 -0.3679 2.5114 0.7965 1.7419 4.5686 -1.3185 -0.5061 -4.3703 -0.8008 2.3814 3.0709 1.2074 0.6130 1.5417 -0.4483 0.6477 -0.3188 1.5019 -0.7807 -0.5174 -0.9242 0.1292 -1.5866 1.1062 -1.1982 -1.7340 0.3921 0.2903 2.7841 -0.7052 -1.3042 -3.5404 0.0376 1.5810 3.4571 0.6824 0.1622 0.2272 -0.1649 -0.7434 -2.2729
0.3918 -2.3555 -4.1433 -0.6572 -0.3262 2.4080 1.5723 1.7674 3.7074 -1.8407 -1.7108 -3.8068 -0.2407 0.9911 4.8270 0.6411 1.3827 1.2675 -0.4186 1.2150 -0.9887 0.9813 -0.6043 -0.2016 -0.7026 0.4370 -2.1846 0.6764 -1.3481 -1.2780 -0.3019 1.0495 2.4148 -0.5821 -1.6410 -3.4719 0.3223 1.2528 3.7715 0.3590 0.6970 -0.0200 -0.2005 -0.8066 -2.3013
-0.0523 -0.8264 -4.8457 -0.5965 -0.4142 3.1238 -0.0420 2.3778 3.8944 -0.4177 -2.8215 -3.6672 1.8203 1.1431 4.3250 -0.2880 1.2303 1.4077 -0.8268 1.0923 -1.0017 0.3875 -0.7608 -0.0282 -0.8284 0.3824 -2.2700 0.4029 -1.4154 -1.2010 0.3533 0.4645 2.5474 -0.2424 -1.5282 -3.6707 0.8124 1.3532 3.6638 -0.2500 0.5433 0.0848 -0.2322 -0.8203 -2.3622
0.3544 -2.7755 -3.7050 1.7968 0.4819 1.9762 -0.8765 1.1684 4.0234 -1.2149 -1.2121 -4.4772 1.2938 0.9771 4.6539 -0.4262 1.3126 1.4090 -0.2304 1.2527 -1.0785 -0.3671 -0.8372 0.1402 -0.2221 0.4900 -2.3192 -0.3726 -1.5439 -1.0028 0.7839 1.4062 2.3261 -0.3939 -1.6235 -3.5507 0.4552 1.1435 3.7770 -0.2739 0.6132 0.1058 -0.3064 -0.8533 -2.2783
-1.8119 -1.9592 -3.8401 -0.7735 -0.2449 2.4291 1.4446 0.4028 3.8681 0.5064 -2.0706 -4.1799 0.1595 2.1525 4.5560 0.5839 1.4245 1.2700 -0.7375 1.0412 -0.8192 1.1274 -0.4255 -0.3110 -0.9963 0.2473 -2.0109 0.8612 -1.1878 -1.3854 -0.3209 1.0949 2.4454 -0.5139 -1.6456 -3.4855 0.4314 1.2931 3.7297 0.2769 0.7111 0.0022 -0.2370 -0.8340 -2.2684
-0.2964 -2.9913 -3.4245 1.8167 0.1137 2.1946 -0.6696 0.0835 3.5298 -1.2503 -1.0968 -4.4228 0.3505 1.7738 4.6648 0.1526 1.6577 1.2416 0.3252 1.2774 -1.2028 -0.3700 -0.5746 0.1938 0.1067 0.4362 -2.3696 -0.5773 -1.3543 -0.8810 1.0446 1.2721 2.4097 -0.6373 -1.6518 -3.4139 0.2276 1.0910 3.6575 0.1164 0.7876 0.0342 -0.3393 -0.8242 -2.2114
-0.8716 -2.6291 -3.9926 1.7600 0.4036 2.2040 -0.1815 0.6241 4.3909 0.2837 -0.7076 -4.6688 0.9276 2.6051 4.2481 -0.5888 0.6037 1.6800 -0.4658 0.9818 -0.7853 -0.3303 -1.2878 0.0578 -0.3998 0.4492 -2.1356 -0.2476 -1.7817 -1.1910 0.6433 1.2757 2.2587 -0.2855 -1.4062 -3.7250 0.4762 1.5988 3.7175 -0.4328 0.1484 0.2710 -0.2871 -0.8780 -2.3298
0.1160 -1.8780 -4.4534 -0.4309 -0.2290 3.9263 -0.7892 2.6649 3.2276 -1.4295 -0.1299 -4.2334 1.4344 2.1785 3.1054 0.7823 -0.3058 1.8812 -0.8611 -0.2448 -0.0098 1.4368 -0.8650 -0.4649 -1.1558 -0.3993 -1.4180 1.1733 -0.9859 -1.7796 -0.2329 0.4561 2.7063 -0.5222 -0.9067 -3.7070 0.2650 1.8327 3.0361 0.3847 -0.4569 0.4547 -0.1712 -0.7308 -2.2713
0.6493 -2.0925 -4.2613 1.6635 -0.0986 2.7371 0.2669 2.9861 3.3192 -1.2908 -0.8026 -4.5335 0.2895 1.1840 4.7141 -0.4957 0.2657 1.7943 -0.6582 0.8447 -0.6248 -0.0142 -1.4087 -0.0054 -0.5961 0.4430 -2.0204 0.0083 -1.7929 -1.2947 0.7545 0.9165 2.3462 -0.3237 -1.2400 -3.7738 0.4090 1.6670 3.5983 -0.3662 -0.0417 0.3447 -0.2962 -0.8298 -2.3401
0.2003 -2.3746 -4.2902 1.0136 2.1452 1.7165 -0.4902 2.3989 4.3275 -1.2202 -0.5269 -4.5111 1.0716 0.7417 4.4135 0.1827 -0.1031 1.8507 -1.1249 0.0249 -0.2755 1.0695 -1.0062 -0.3042 -1.2523 -0.2849 -1.6873 0.9571 -1.2857 -1.6159 0.0114 1.3328 2.3078 -0.4414 -1.2667 -3.7695 0.2765 1.4219 3.7826 -0.0052 -0.3130 0.3901 -0.2483 -0.9043 -2.3349
-0.3082 -2.3910 -3.8765 0.9890 -0.6866 2.9738 -0.4879 2.2556 3.7804 -2.1040 -0.9300 -3.5477 -1.4844 0.6853 2.4606 1.5294 1.0900 1.4210 -0.0105 1.1753 -0.5244 1.3851 -0.7878 -0.2517 -0.5892 0.5623 -1.7054 0.8448 -1.3606 -1.3426 0.9269 0.7031 2.7569 -0.9103 -1.3384 -3.2133 -0.4821 1.1866 2.9465 0.9023 0.5066 0.2041 -0.2009 -0.6704 -2.0817
-0.2740 -2.1664 -4.0729 1.2614 -0.5797 2.9124 -0.9586 2.0363 2.2493 -2.2963 -1.3473 -3.2100 -0.9178 0.7480 4.1139 1.5109 1.2178 1.3138 -0.0266 1.2298 -0.6368 1.3292 -0.7405 -0.2616 -0.6331 0.5637 -1.7766 0.7590 -1.3692 -1.3051 1.0280 0.7910 2.6858 -0.9942 -1.4161 -3.1633 -0.3784 1.1515 3.0915 0.8682 0.5809 0.1320 -0.2778 -0.6999 -2.0723
-0.5390 -2.7126 -3.9027 1.2587 2.6417 2.3472 -1.3724 0.6113 3.4274 -1.5207 -0.6171 -4.2845 0.4841 1.2222 4.6031 1.1410 0.3907 1.5829 -0.6110 0.3646 -0.2097 1.4483 -0.8685 -0.5477 -1.0807 -0.1097 -1.4940 1.0255 -1.2948 -1.7517 0.3840 1.5450 2.2007 -0.8144 -1.4117 -3.5285 -0.1232 1.1265 3.5478 0.6023 0.0043 0.2508 -0.2824 -0.8918 -2.2412
-0.5845 -2.7511 -3.6555 1.9052 0.9651 3.4934 -0.7844 -0.0224 4.0692 -1.8311 -0.8030 -4.0353 -1.0489 1.9494 2.9579 1.1526 1.3107 1.2703 0.5185 1.2561 -1.1175 0.5522 -0.8518 0.0701 0.0113 0.5553 -2.2862 0.0370 -1.4960 -0.9910 0.9111 0.5627 2.5664 -0.9198 -1.4440 -3.3565 -0.4025 0.9395 3.1908 0.7437 0.5902 0.0317 -0.2604 -0.7606 -2.2077
0.5530 -1.8392 -4.4851 -1.4703 1.0522 2.6594 1.3210 2.7353 3.3463 -1.5079 -0.7371 -4.3531 0.5105 1.0584 4.6618 0.4269 -0.1457 1.8532 -1.0778 -0.5394 -0.1000 1.3167 -0.5070 -0.4676 -1.2646 -0.7820 -1.5184 1.1462 -0.7248 -1.7848 -0.1019 1.1976 2.3141 -0.4104 -1.1459 -3.7776 0.5931 1.6146 3.5770 0.1607 -0.3844 0.4064 -0.1951 -0.8527 -2.3316
0.1073 -1.2317 -4.7892 0.3653 -0.6500 2.7526 -0.4068 1.0548 4.8293 -1.3941 -2.5462 -3.5560 1.1486 2.3485 3.7862 0.5757 1.2483 1.3003 1.2995 0.2102 -0.8241 -1.0696 0.1995 -0.3108 1.0049 -0.4903 -2.0621 -1.3494 -0.4286 -1.4668 -0.0961 0.6734 2.5342 -0.5356 -1.5650 -3.6123 0.3116 1.4588 3.7509 0.3082 0.5143 0.0343 -0.2694 -0.7960 -2.3666
0.2874 -2.4526 -3.7720 -1.1768 2.0643 2.3468 -0.4083 -0.5803 2.5855 -1.9172 -2.0226 -3.1003 1.1378 0.1918 4.0671 0.9239 1.8967 1.1583 -0.4848 1.3048 -0.8127 1.2935 -0.2068 -0.1554 -0.8510 0.3671 -1.8608 0.9390 -1.0910 -1.1053 0.1784 1.7164 2.4648 -0.6387 -1.7847 -2.9943 0.3780 0.3806 3.1276 0.5157 1.0075 0.0370 -0.1771 -0.7912 -1.9862
0.1876 -2.8916 -3.7292 -1.4567 0.5747 2.8866 0.2919 2.3219 4.1015 -0.9854 -1.0570 -4.5972 1.6058 0.4708 4.2954 0.1903 1.3397 1.3199 -0.0675 -0.8106 0.0525 0.1559 1.2590 -1.1851 -0.2216 -1.5152 -1.2019 0.0491 0.6033 -2.3571 -0.0795 0.5448 2.5810 -0.3261 -1.6123 -3.6181 0.7056 1.0841 3.7388 0.0964 0.5260 0.0729 -0.1458 -0.8376 -2.3601
-0.9379 -2.2412 -4.2920 -0.5654 2.4797 2.1156 -0.1243 1.2226 4.5176 0.7582 -0.6281 -4.4488 2.0514 1.2484 3.8452 -0.4623 0.1032 1.8561 -1.5386 -0.4596 -0.3152 0.8818 -0.3743 -0.2121 -1.4341 -0.8191 -1.7215 0.9831 -0.7372 -1.5017 0.3018 1.3676 2.1916 -0.1251 -1.2725 -3.7360 0.8567 1.2778 3.5841 -0.4258 -0.2163 0.4035 -0.2195 -0.9511 -2.2863
1.2690 -2.0356 -3.5841 0.0689 -0.7555 3.1966 1.2289 1.9720 3.9758 -0.3671 -0.6214 -4.4968 1.5655 1.5589 1.7615 -1.3280 0.6471 1.8038 -0.6060 1.0924 -0.5233 -0.8620 -1.2195 0.1610 -0.2074 0.6296 -1.8400 -0.5086 -1.6544 -1.0635 -0.3249 0.5721 2.9372 0.2421 -1.1208 -3.4569 0.9069 1.4174 2.7795 -0.8839 0.2070 0.4521 -0.1934 -0.6891 -2.1030
-1.3469 -0.6981 -4.3189 1.3160 -0.5553 2.8960 -0.9518 2.0327 2.2966 -1.1342 -2.7132 -3.1407 -0.8490 0.7402 4.1570 1.4870 1.2449 1.2917 -0.1238 1.1832 -0.5943 1.3163 -0.7347 -0.2596 -0.7449 0.4892 -1.7065 0.7633 -1.3715 -1.3079 1.0589 0.8128 2.6797 -0.9621 -1.4211 -3.2053 -0.3405 1.1543 3.1231 0.8285 0.5760 0.1375 -0.3168 -0.7395 -2.0484
-0.7344 -2.6203 -3.7356 -1.3522 0.9107 3.6414 1.2145 1.9667 3.5808 1.0086 -1.1412 -4.2578 1.7914 -0.1872 3.1170 -0.6853 1.4656 1.4238 -1.5995 0.2292 -0.5366 0.8039 0.4813 -0.3279 -1.3788 -0.5220 -1.7611 1.0126 -0.2620 -1.4283 -0.4428 0.5695 2.6184 0.0685 -1.5342 -3.4422 0.9652 0.7152 3.1268 -0.5485 0.7056 0.1552 -0.1232 -0.7769 -2.1739
-0.6548 -2.9071 -3.1721 1.5702 1.6350 3.6076 -1.1485 1.5947 3.0114 -1.4841 -0.9395 -4.1427 -0.7943 -0.6537 3.1088 1.1939 1.5141 1.2594 -0.5292 1.0190 -0.4356 1.5099 -0.2974 -0.4759 -1.0197 0.2441 -1.5564 1.0750 -0.9879 -1.5473 1.0516 0.8029 2.5887 -0.8217 -1.5361 -3.1900 -0.3772 0.4831 2.9364 0.6697 0.7375 0.1061 -0.2409 -0.7089 -2.0985
1.0574 -1.1603 -4.3080 -1.5910 1.3952 2.4957 1.2695 1.6393 4.1575 -1.2488 -0.7566 -4.2321 1.1766 2.1788 1.9434 -0.2544 -0.6110 2.1456 -1.0245 0.1570 -0.1094 0.7932 -1.4353 0.0282 -0.9427 0.0889 -1.5527 0.8303 -1.5513 -1.3130 -0.4584 0.6753 2.9214 -0.1062 -0.8893 -3.6146 0.7430 1.5715 2.9098 -0.1726 -0.5462 0.6594 -0.0714 -0.7561 -2.1312
-1.6012 -2.6819 -3.2797 0.8852 2.8122 2.8034 -1.2883 0.1401 3.1247 -0.5335 -1.0137 -4.5442 0.5216 0.6046 4.4301 1.2671 0.9399 1.3800 -0.6389 0.0616 -0.0007 1.5995 0.0056 -0.9182 -1.1259 -0.5676 -1.2102 1.1602 -0.6166 -2.0291 0.2650 1.6633 2.2580 -0.8082 -1.5550 -3.3897 -0.1168 0.7667 3.4015 0.6676 0.3554 0.1450 -0.2536 -0.9148 -2.1709
-1.5101 -2.7565 -2.8686 -1.2801 1.8856 2.4966 0.2130 -0.6791 2.4978 0.1421 -1.7454 -4.1902 0.9838 0.4040 4.3415 0.7345 1.9222 1.1443 -0.9325 0.7149 -0.2981 1.4330 0.4597 -0.7515 -1.2078 -0.2527 -1.3429 1.1846 -0.4528 -1.7094 0.1106 1.6941 2.5046 -0.5188 -1.8140 -3.0677 0.4977 0.4294 3.2191 0.3378 1.0253 0.0227 -0.1877 -0.8346 -1.9980
1.4690 -1.7026 -3.7637 -0.6261 -0.5708 2.9160 1.1686 1.1415 4.4546 -0.8327 -1.9102 -4.1433 1.8225 1.4642 2.2981 -0.9818 1.3680 1.4938 0.4357 0.9263 -0.4988 -1.5983 -0.3606 -0.2343 0.6839 0.2266 -1.7454 -1.3698 -1.0161 -1.3879 -0.4712 0.8262 2.8154 0.1527 -1.4712 -3.4088 0.9593 1.1810 3.1143 -0.6365 0.6178 0.2536 -0.1754 -0.7201 -2.1634
-0.1308 -2.4257 -3.8431 -0.0223 -0.5685 3.5654 1.9110 0.7312 2.0787 0.6637 -0.2693 -4.2888 1.1147 2.6500 3.0122 -1.2916 0.5841 1.8682 -0.9245 1.0239 -0.5308 -0.4424 -1.2059 0.2874 -0.5968 0.5730 -1.8703 -0.1012 -1.6174 -0.9485 -0.2769 0.6820 2.9844 0.1365 -1.1262 -3.4574 0.9643 1.4782 2.6953 -0.8295 0.1796 0.5133 -0.1743 -0.6892 -2.0661
-2.4050 -1.2803 -3.1880 1.6009 -0.2143 3.1783 -1.0346 -0.0846 2.3834 -0.3181 -2.0409 -3.9484 -1.0296 1.9684 3.3683 1.5919 1.2991 1.2959 0.0474 1.2939 -0.6477 1.2804 -0.7371 -0.1554 -0.5993 0.5982 -1.7453 0.6632 -1.3937 -1.1552 1.0608 0.9834 2.6792 -1.0303 -1.3746 -3.0827 -0.4326 1.0381 2.8451 0.9259 0.6435 0.1384 -0.3214 -0.6990 -1.9660
-1.3208 -2.3105 -3.7720 0.1890 2.6357 3.3243 -0.4349 -0.1090 3.6825 0.9876 -1.9206 -3.9200 1.7973 -0.1725 3.2359 -0.6898 1.5241 1.4036 -1.2383 1.0045 -0.9426 0.6364 -0.1717 0.0316 -1.1091 0.1652 -2.1212 0.7471 -0.9703 -1.0446 0.4795 1.6400 2.3598 -0.1558 -1.7138 -3.3275 0.7057 0.3695 3.1303 -0.4127 0.8373 0.1083 -0.1812 -0.8081 -2.1483
0.0423 -2.5288 -3.6758 0.7329 2.3160 3.4923 -1.3209 -0.1539 2.2574 -2.0873 -1.6921 -3.1614 0.5680 -0.4562 3.4973 1.1544 1.7093 1.2401 -0.2771 1.3658 -0.7818 1.3549 -0.3268 -0.1816 -0.7564 0.4805 -1.8299 0.8802 -1.1662 -1.1180 0.1504 1.6642 2.3769 -0.7957 -1.6798 -2.9775 -0.1448 0.2502 2.8014 0.7219 0.9659 0.0266 -0.2229 -0.7480 -1.9659
-1.4937 -2.0177 -3.7409 -0.4508 -0.6585 3.2674 0.5296 2.6093 3.5303 -0.4785 0.0011 -4.3804 -1.1536 1.9081 2.1618 1.3901 -0.0480 1.8208 -0.4888 -0.6811 0.2728 1.6664 -0.0826 -0.6560 -0.9918 -0.8600 -1.0726 1.2284 -0.3252 -1.9059 0.5051 0.3364 2.9890 -0.7245 -0.9014 -3.4719 -0.1509 1.6766 2.8196 0.7724 -0.2581 0.4810 -0.1594 -0.6988 -2.1150
-1.2187 0.3693 -4.1656 0.4186 0.0187 4.2208 -1.1801 2.2731 2.9584 -0.3179 -1.7923 -4.3086 1.0009 2.3847 2.3035 0.9437 -0.4610 1.9482 -0.7167 -0.0958 0.1009 1.3706 -1.2183 -0.3971 -1.0648 -0.1699 -1.3013 1.0635 -1.2688 -1.7074 -0.0079 0.2505 2.8910 -0.5864 -0.7263 -3.6067 0.0381 1.7398 2.6903 0.4549 -0.5893 0.5451 -0.1977 -0.7145 -2.1715
1.3112 -1.5881 -3.8320 -1.2083 0.2604 3.3458 1.3333 -0.4315 2.5123 -0.9204 -2.2939 -3.7247 1.9768 1.6168 3.2747 -0.8191 1.6909 1.4314 0.2047 1.2879 -0.7815 -1.2498 -0.4298 0.1159 0.3802 0.4778 -1.9736 -1.0665 -1.1975 -0.9745 -0.3465 1.2141 2.7867 0.0566 -1.5700 -3.2516 1.1071 0.8512 2.8829 -0.5495 0.8405 0.2401 -0.2098 -0.7286 -2.0518
0.3957 -1.9039 -4.1096 0.7389 -0.1279 3.9067 0.1392 2.8229 2.8475 -0.0900 0.3846 -4.2332 1.4751 1.5113 1.5480 -0.8522 -0.5215 2.1714 -1.3451 0.2568 -0.1365 0.3592 -1.4405 0.1781 -1.1007 0.1934 -1.5659 0.6033 -1.4843 -1.1445 -0.1724 0.5171 3.0394 0.0520 -0.7009 -3.5227 0.5749 1.6324 2.3645 -0.6268 -0.5097 0.7045 -0.1512 -0.6298 -2.0475
-0.6141 -3.0288 -2.7905 -0.4269 2.5882 2.6529 0.6141 -0.4264 3.8179 -1.3210 -1.1864 -4.0610 -1.1880 -0.1358 2.4541 1.2693 1.6343 1.2587 -0.4384 1.1442 -0.5061 1.5702 -0.2105 -0.3905 -0.9158 0.2858 -1.5764 1.1645 -0.9613 -1.4304 0.5423 1.5643 2.5868 -0.7209 -1.6682 -3.0079 -0.1225 0.2547 2.9066 0.7259 0.8636 0.1092 -0.1387 -0.7176 -2.0236
1.4700 -1.2154 -4.0038 -1.0361 1.5069 3.7873 1.6274 2.3213 2.9646 -0.8393 -1.2610 -4.4084 1.6249 0.0440 2.9539 -1.0522 0.0375 1.9363 -1.4892 0.3925 -0.5011 0.3282 -1.0625 0.1772 -1.1482 0.1140 -1.8880 0.6377 -1.3312 -1.1021 -0.4265 1.2866 2.5228 0.1590 -1.0672 -3.5915 1.0351 1.1069 2.8338 -0.7602 -0.1517 0.4912 -0.1307 -0.7208 -2.1722
-0.1677 -1.5525 -4.4717 -0.2870 -0.7225 3.0017 -0.9811 1.8931 2.2836 -2.1819 -0.7540 -3.5640 0.4783 2.4612 3.9333 1.5276 0.1929 1.6433 0.9823 -1.4040 -0.1875 0.1895 0.8779 -0.3675 0.3738 -1.6841 -1.4790 -0.3611 0.6305 -1.5685 0.6680 0.2991 2.8865 -0.9105 -1.0173 -3.4376 0.0759 1.6634 3.0979 0.8558 -0.1841 0.3693 -0.2619 -0.6997 -2.1399
-0.6211 -1.0850 -4.5226 -0.4133 -0.4995 3.3932 1.7904 0.8182 1.8251 1.2539 -2.0116 -3.4606 1.5751 2.0500 3.7222 -1.1925 1.0509 1.6961 -1.0028 1.1284 -0.7568 -0.4276 -0.9602 0.3214 -0.6731 0.5272 -2.0366 -0.1278 -1.5263 -0.8622 -0.3221 0.8129 2.9088 0.1567 -1.3077 -3.4019 1.0924 1.3155 2.8710 -0.8414 0.4347 0.3861 -0.2469 -0.7476 -2.0832
-1.5924 -1.5835 -3.8673 -1.1677 2.1107 2.4216 0.0282 0.4127 4.4518 0.3010 -2.8257 -3.2699 0.4064 -0.7270 2.5186 0.8772 1.8719 1.1706 -0.8077 0.8123 -0.3588 1.5401 0.2865 -0.6396 -1.1184 -0.1584 -1.3912 1.2589 -0.5891 -1.6218 0.1802 1.7026 2.5063 -0.4764 -1.7949 -3.0792 0.2302 0.3254 3.1119 0.4651 0.9923 0.0413 -0.1245 -0.8356 -1.9942
-1.1781 -0.7251 -4.4055 1.5219 -0.4015 2.9245 -0.1719 2.3856 1.8101 1.1164 -0.9710 -3.9766 1.3852 2.4453 3.4542 -0.7781 -0.3272 2.1619 -1.2859 0.3639 -0.1628 0.2207 -1.5055 0.1651 -1.0920 0.2373 -1.5944 0.3686 -1.6568 -1.1640 0.3299 0.3416 2.9449 -0.1041 -0.8207 -3.5412 0.5904 1.8149 2.7681 -0.6080 -0.4301 0.6874 -0.3150 -0.7508 -2.0716
1.1181 -1.4170 -4.1215 0.0753 2.6675 3.2322 0.0163 -0.4963 3.2119 -0.8787 -2.5616 -3.6719 2.0192 0.4940 3.6105 -0.8610 1.3910 1.4737 -0.1404 1.2597 -0.9190 -1.0032 -0.7274 0.1709 0.0408 0.4752 -2.1303 -0.8078 -1.4625 -0.9367 0.3937 1.6676 2.2749 -0.0121 -1.6377 -3.3578 0.9094 0.5127 3.0931 -0.6100 0.6721 0.1974 -0.2597 -0.8370 -2.1274
1.0635 -2.4937 -3.3094 0.3138 2.7688 2.3981 0.6225 -0.3699 3.8301 -0.5016 -1.0785 -4.3323 1.8958 0.4456 2.1232 -1.2853 1.1259 1.6842 -0.6935 1.2304 -0.7360 -0.6570 -0.9209 0.3831 -0.3132 0.5570 -1.9670 -0.2994 -1.5456 -0.7522 -0.2179 1.4981 2.6951 0.1482 -1.4593 -3.2668 0.8958 0.4963 2.8237 -0.8363 0.5232 0.4000 -0.1354 -0.7773 -1.9737
-1.4553 -2.5676 -3.1713 -0.0604 2.3518 3.5565 1.5826 0.1716 3.1203 0.6171 -1.8460 -4.0043 -0.4169 -0.9121 2.9939 0.2588 1.9926 1.2170 -1.0561 1.0635 -0.7024 1.1813 0.2242 -0.2848 -1.1791 0.0964 -1.7829 1.0521 -0.7041 -1.2485 -0.3271 1.4438 2.5043 -0.3356 -1.7600 -3.1172 0.2470 0.1113 2.9014 0.0686 1.1050 0.0367 -0.1770 -0.7704 -2.0187
1.0291 -0.0300 -4.1328 -0.1385 -0.1654 3.9316 1.2237 2.5278 2.8665 0.0366 -2.1428 -3.9206 1.7581 0.6048 1.7682 -1.3855 0.3054 1.9453 -0.9649 0.9360 -0.4156 -0.6176 -1.3744 0.2392 -0.5424 0.5891 -1.7588 -0.2048 -1.6947 -1.0016 -0.3646 0.8159 2.9417 0.3158 -0.9725 -3.4149 0.9749 1.2674 2.4309 -0.9630 0.0036 0.5547 -0.1568 -0.6702 -2.0339

>  <OB_ATOM_TYPES> (1tppA1)
N.pl3 O.3 O.co2 N.pl3 O.co2 C.3 C.ar C.ar C.ar C.ar C.3 C.2 C.2 C.ar C.ar

>  <ENSEMBLE_RMSD> (1tppA1)
0.573 0.639 0.810 0.872 0.920 0.928 0.930 0.986 0.994 1.076 1.080 1.104 1.140 1.154 1.198 1.241 1.242 1.255 1.270 1.319 1.322 1.342 1.345 1.379 1.413 1.420 1.438 1.441 1.452 1.470 1.477 1.478 1.509 1.510 1.515 1.515 1.537 1.561 1.574 1.576 1.580 1.594 1.599 1.600 1.611 1.622 1.637 1.642 1.734 1.771

$$$$
