
 OpenBabel03071213D

 11 12  0  0  0  0  0  0  0  0999 V2000
    1.3370   14.3080   26.1520 N   0  0  0  0  0
    0.0380   17.6050   29.0880 O   0  0  0  0  0
    2.9390   18.6780   25.7470 N   0  0  0  0  0
    0.7090   15.9810   27.6170 N   0  0  0  0  0
    2.6420   19.7880   26.5580 C   0  0  0  0  0
    1.7900   19.4970   27.5610 N   0  0  0  0  0
    2.2350   16.3870   25.8550 N   0  0  0  0  0
    1.4290   15.5910   26.5300 C   0  0  0  0  0
    0.7400   17.2820   28.1270 C   0  0  0  0  0
    2.2470   17.6290   26.3050 C   0  0  0  0  0
    1.5740   18.1210   27.3780 C   0  0  0  0  0
  1  8  1  0  0  0
  2  9  2  0  0  0
  3  5  1  0  0  0
  3 10  1  0  0  0
  4  8  1  0  0  0
  4  9  1  0  0  0
  5  6  2  0  0  0
  6 11  1  0  0  0
  7  8  2  0  0  0
  7 10  1  0  0  0
  9 11  1  0  0  0
 10 11  2  0  0  0
M  END
>  <MOLID> (1ulbA1)
1ulbA1

>  <SMILES_CANONICAL> (1ulbA1)
Nc1[nH]c(=O)c2c(n1)[nH]cn2	

>  <FINGERPRINT> (1ulbA1)
0000000000000000000000000000101000000000100000000001100000000000000000000000100000000000000000000000000000000000000001100000000000000000000000000000000001000000000000000000000011000000000000000000000000000000101100000000000000000000000000000000100000000000000001100100000000000001000000000000000000000000000000000110000000000000000000001000000000000100000000000000000000010000000000000000000000000000100000000000000000000000010000000000000000000000000000000000000000000000000000000001000000001100000000000000010000000000000000000000000000000000000000000000000010000000000000000000000001000000000000000000000000000000001000000000000000000000000000000000000000000001000000000000010000000000000000000100000000100001100000000000100001000000000000000011000000000000000001000000000000000000000000000000000010000000001000000000000000000000011000000000000000000000000000000000000000000100000000000000000000000000000000000100000000001000000000000100011000010000000000001100000000000000000000000000000010000000000000000000001010000000

>  <MACCS166> (1ulbA1)
000000000000000000001000110000000000010000101000000010000000000010000000000111110011000000010011111000001100010010001011100010100010101110010110010000100101011010111000

>  <OB_MW> (1ulbA1)
151.049

>  <OB_logP> (1ulbA1)
-0.1904

>  <OB_PSA> (1ulbA1)
100.45

>  <OB_MR> (1ulbA1)
38.9138

>  <OB_ATOMIC_CHARGES> (1ulbA1)
-0.0859081423 -0.2633337717 -0.2030567939 -0.1709437868 0.2005295464 -0.2158943039 -0.1901749782 0.2606708884 0.3024037056 0.1893002988 0.1764073376

>  <MCT_HBD> (1ulbA1)
3

>  <MCT_HBA> (1ulbA1)
6

>  <ENSEMBLE_TOTAL> (1ulbA1)
1

>  <ENSEMBLE_COORDS> (1ulbA1)
-0.2703 -3.0435 -0.8405 -1.5693 0.2535 2.0955 1.3317 1.3265 -1.2455 -0.8983 -1.3705 0.6245 1.0347 2.4365 -0.4345 0.1827 2.1455 0.5685 0.6277 -0.9645 -1.1375 -0.1783 -1.7605 -0.4625 -0.8673 -0.0695 1.1345 0.6397 0.2775 -0.6875 -0.0333 0.7695 0.3855

>  <OB_ATOM_TYPES> (1ulbA1)
N.pl3 O.2 N.ar N.ar C.ar N.ar N.ar C.ar C.ar C.ar C.ar

>  <ENSEMBLE_RMSD> (1ulbA1)
0.000

$$$$
