
 OpenBabel03071213D

 27 29  0  0  0  0  0  0  0  0999 V2000
   54.1780   61.9570   44.7040 C   0  0  0  0  0
   51.1400   57.4350   49.3600 O   0  0  0  0  0
   49.7050   58.0150   47.5850 O   0  0  0  0  0
   50.3570   58.2420   40.4260 C   0  0  0  0  0
   51.3090   58.9710   41.3910 C   0  0  0  0  0
   49.0120   58.7930   40.4820 N   0  0  0  0  0
   52.2660   58.2310   47.3180 N   0  0  0  0  0
   50.7670   59.0030   42.7200 O   0  0  0  0  0
   50.3900   62.5890   49.7680 C   0  0  0  0  0
   49.3270   61.8920   49.1570 C   0  0  0  0  0
   51.6420   61.9500   49.9290 C   0  0  0  0  0
   47.0040   55.6120   40.5200 C   0  0  0  0  0
   45.5020   57.5480   40.4580 C   0  0  0  0  0
   48.0910   56.4960   40.4990 C   0  0  0  0  0
   46.6050   58.4010   40.3980 C   0  0  0  0  0
   49.4410   60.5040   48.9530 C   0  0  0  0  0
   51.7980   60.5990   49.5380 C   0  0  0  0  0
   53.0180   60.1840   46.0710 C   0  0  0  0  0
   52.5570   60.3530   43.6960 C   0  0  0  0  0
   51.6380   58.5000   44.9710 C   0  0  0  0  0
   45.6890   56.1380   40.4510 N   0  0  0  0  0
   53.1420   60.8710   44.8590 C   0  0  0  0  0
   47.9000   57.8890   40.4890 C   0  0  0  0  0
   52.2140   59.0250   46.1450 C   0  0  0  0  0
   51.6860   59.2410   43.7660 C   0  0  0  0  0
   50.7250   59.9530   48.9100 C   0  0  0  0  0
   50.9340   58.3490   48.2640 S   0  0  0  0  0
  1 22  1  0  0  0
  2 27  2  0  0  0
  3 27  2  0  0  0
  4  5  1  0  0  0
  4  6  1  0  0  0
  5  8  1  0  0  0
  6 23  1  0  0  0
  7 24  1  0  0  0
  7 27  1  0  0  0
  8 25  1  0  0  0
  9 10  2  0  0  0
  9 11  1  0  0  0
 10 16  1  0  0  0
 11 17  2  0  0  0
 12 14  1  0  0  0
 12 21  2  0  0  0
 13 15  2  0  0  0
 13 21  1  0  0  0
 14 23  2  0  0  0
 15 23  1  0  0  0
 16 26  2  0  0  0
 17 26  1  0  0  0
 18 22  2  0  0  0
 18 24  1  0  0  0
 19 22  1  0  0  0
 19 25  2  0  0  0
 20 24  2  0  0  0
 20 25  1  0  0  0
 26 27  1  0  0  0
M  END
>  <MOLID> (1uvtB1)
1uvtB1

>  <SMILES_CANONICAL> (1uvtB1)
Cc1cc(OCCNc2ccncc2)cc(c1)NS(=O)(=O)c1ccccc1	

>  <FINGERPRINT> (1uvtB1)
0000010000000000001000000001001011000000100000000000000000001000001000010000000001010101000010100000000010110001000001100000001000000000000001000001000010000000000001000000000000000000000000000000001000000000100000000000000000000000000000000000000000000000000000000000000000000000000000000010000000000000000010000100000000000000001001000010000000000100011000000000000010000000000000000000000010000100000011000000001000001000000000000000000010000001100000010010100000010000010000010000000000001110000000000000110000000000000001000010000000000000000000100000000000000000000000000000000001101000000000000000000000000000000000100110011000000000110000000001000000000000000000000000100000000100100010000000000000110010100001000000000001000000000010000100000000000000000110000000000000000100000000001000000010000000000000000000000000000000000010000000000010000000000000000000000000000000000000001000110000000000010000000000011000001010001000000000011000000000000000000000000000000000000000000000000000000000000000010000001001100000

>  <MACCS166> (1uvtB1)
000000000000000000000000000000011000000000001000011000100111100110100000100101011100000100000110111101010101001110001111100111100111101111011110111110111011111110111000

>  <OB_MW> (1uvtB1)
383.13

>  <OB_logP> (1uvtB1)
4.9085

>  <OB_PSA> (1uvtB1)
88.7

>  <OB_MR> (1uvtB1)
106.442

>  <OB_ATOMIC_CHARGES> (1uvtB1)
0.0311736957 -0.1483029483 -0.1483029483 0.159365716 0.2286192664 -0.2335398534 -0.0964554052 -0.4735101583 8.13921e-05 0.0013800087 0.0013800087 0.1002078923 0.1002078923 0.0367568063 0.0367568063 0.0202487701 0.0202487701 0.0139953909 0.0327337164 0.0549029524 -0.2422308858 -0.0175019018 0.0685410756 0.0937124321 0.1396680127 0.1270406233 0.0928228725

>  <MCT_HBD> (1uvtB1)
2

>  <MCT_HBA> (1uvtB1)
6

>  <ENSEMBLE_TOTAL> (1uvtB1)
50

>  <ENSEMBLE_COORDS> (1uvtB1)
2.3321 3.2461 -0.6923 1.9710 -1.2080 4.9070 0.4833 -1.6884 2.9619 -0.2933 -1.3734 -2.9754 1.1539 -0.9667 -3.0893 -1.0450 -0.8964 -4.1221 2.6969 -0.4569 2.5900 1.8641 -1.4776 -1.9583 -1.0344 2.9935 4.4210 -1.6105 1.8710 3.9564 0.3778 2.9916 4.7580 -4.5919 -1.8383 -3.4996 -4.3616 -1.1403 -5.6239 -3.1596 -1.6031 -3.1893 -3.0510 -0.8908 -5.4809 -0.8008 0.6903 3.7193 1.1162 1.8830 4.5691 2.3729 1.4264 0.9993 2.2023 0.8410 -1.3462 2.3003 -0.9161 0.3270 -5.1809 -1.6227 -4.6328 2.3237 1.8219 -0.2853 -2.4041 -1.1476 -4.2065 2.3197 0.0110 1.3023 2.1225 -0.4738 -1.0529 0.5188 0.6940 3.9915 1.3772 -0.7697 3.6521
3.8667 2.2801 -0.1323 0.1659 -1.6318 4.5945 -1.2406 -0.4754 2.8885 -0.0103 -0.1412 -4.4072 0.1874 0.7889 -3.2321 -1.4181 -0.1767 -4.7554 1.1833 -1.1066 2.3196 -0.1142 0.0772 -2.0356 1.4950 3.2888 5.2667 2.0779 2.1211 5.5917 0.3739 3.3050 4.3449 -2.7908 -3.5220 -3.8829 -4.2126 -2.4509 -5.2553 -1.8209 -2.3973 -3.8825 -3.4230 -1.3718 -5.3517 1.5836 0.8812 5.0198 -0.0837 2.1541 3.8222 2.4871 0.6838 1.1772 1.8256 1.2065 -1.0994 0.5479 -0.4056 0.1856 -3.9223 -3.5675 -4.5118 2.7092 1.3714 0.0419 -2.1593 -1.3367 -4.6390 1.3246 -0.1758 1.2568 0.7823 0.3516 -1.0353 0.5323 0.8910 4.1770 0.0532 -0.6416 3.5338
2.2000 3.1926 -0.4709 2.1285 -0.9690 5.1598 0.3416 -1.5202 3.5145 -0.0929 -1.7625 -3.7202 1.0014 -0.9844 -3.0311 -1.2913 -0.9487 -3.7739 2.5856 -0.6168 2.6927 1.0995 -1.4610 -1.6927 -0.3345 3.4715 4.8018 0.8703 3.1036 5.2726 -1.0857 2.5634 3.9549 -3.8009 -2.6620 -5.9228 -4.7577 -0.9194 -4.8753 -2.4786 -2.4168 -5.2905 -3.6292 -0.5937 -4.2289 1.4084 1.7965 4.9415 -0.5868 1.3501 3.6594 2.3421 1.3284 1.1572 1.6467 0.8350 -1.1135 1.8518 -0.9661 0.5019 -4.8819 -1.9690 -5.7509 2.0756 1.7675 -0.0856 -2.4233 -1.3736 -4.4418 2.1402 -0.0716 1.4617 1.5628 -0.4863 -0.8445 0.7017 0.9367 4.1816 1.4063 -0.6241 3.9430
1.3772 3.2080 -0.7606 1.8284 -1.4418 4.5827 0.2435 -1.7078 2.6776 0.2871 -2.0551 -3.7394 1.3274 -1.0021 -3.4378 -0.7644 -1.4401 -4.5282 2.4960 -0.5217 2.3173 2.1163 -1.3993 -2.3193 -0.9572 2.9531 4.5065 -1.2855 2.2555 3.4046 0.0869 2.4622 5.3872 -3.8065 -1.0003 -2.4304 -4.3343 -0.7458 -4.6000 -2.3750 -1.2664 -2.7282 -3.0804 -0.9872 -5.0087 -0.5886 1.0203 3.0967 0.7363 1.3222 5.0914 1.8690 1.3584 0.8133 1.8584 0.8872 -1.5620 2.2734 -0.9111 0.0190 -4.7417 -0.7430 -3.2893 1.7188 1.8021 -0.4458 -2.0411 -1.2608 -4.0318 2.0974 -0.0522 1.0391 2.0540 -0.4308 -1.3423 0.4037 0.5753 3.8926 1.2011 -0.8789 3.3956
1.7983 3.1024 -0.9748 1.4978 -1.3369 4.5802 0.1581 -1.7061 2.5074 0.3397 -1.8141 -3.5079 1.7038 -1.1718 -3.4325 -0.6519 -0.9330 -2.9173 2.4220 -0.5193 2.3584 2.3729 -1.6020 -2.2467 -1.3487 2.9693 3.9947 -1.9374 1.8559 3.5225 0.0487 2.9358 4.3877 -3.9240 -1.6328 -4.5417 -4.2414 -0.3579 -2.7178 -2.4534 -1.6826 -4.3433 -2.9350 -0.3300 -2.4159 -1.1535 0.6478 3.3378 0.7687 1.8117 4.2215 1.9445 1.2901 0.7177 2.2230 0.7284 -1.6178 2.4466 -1.0071 0.0687 -4.7838 -1.0191 -3.7919 1.9854 1.6919 -0.5641 -1.9855 -1.0244 -3.2668 2.1507 -0.1096 1.0258 2.3796 -0.5799 -1.3246 0.1600 0.6305 3.6391 1.0147 -0.8370 3.3015
2.9041 2.9486 -0.1633 0.4938 -1.4829 4.8674 -0.9920 -0.1552 3.3679 0.0352 -0.8309 -4.2512 -0.0375 0.2071 -3.1565 -1.1077 -0.6633 -5.1274 1.3182 -0.9099 2.5299 -0.2116 -0.4555 -1.9070 2.0147 3.2748 5.8680 2.5630 2.0626 6.0646 0.9037 3.4235 4.9460 -3.5888 -3.3521 -4.4605 -3.9946 -2.4237 -6.4665 -2.4151 -2.4775 -4.2054 -2.9492 -1.5894 -6.3741 2.0274 0.9044 5.3714 0.4072 2.3471 4.3115 2.0628 1.0894 1.2450 1.3019 1.2428 -1.0513 0.5504 -0.5964 0.3448 -4.3540 -3.3357 -5.5056 2.0831 1.7374 0.0674 -2.1147 -1.6069 -5.1867 1.2076 -0.0686 1.3922 0.5724 0.1123 -0.9308 0.9739 1.0320 4.5412 0.3457 -0.4339 3.8691
3.5511 2.7354 0.0162 -0.1184 -1.8534 3.8685 -1.1891 -1.1747 1.7228 0.0747 0.0862 -4.4185 1.4133 0.2638 -3.7470 -0.9939 0.2738 -3.4549 1.3578 -1.3118 1.8761 1.6684 -0.7936 -2.8232 -0.3186 3.2171 4.3598 0.3727 2.2467 4.9837 -0.9740 2.9376 3.0954 -2.8485 -2.9432 -3.2672 -3.7837 -1.4476 -1.8737 -1.8095 -1.9855 -3.7202 -2.9050 -0.4866 -2.1936 0.4436 0.9183 4.4011 -0.9106 1.7048 2.5628 2.3896 0.7682 0.9883 2.6774 0.8827 -1.4119 1.4478 -0.9741 -0.4392 -3.7861 -2.7141 -2.4035 2.8646 1.4270 -0.0826 -1.8655 -0.7593 -3.1680 1.6239 -0.4440 0.7849 1.9309 -0.2263 -1.5953 -0.1926 0.6453 3.2450 -0.1201 -0.9926 2.6940
2.9572 2.8692 -0.8414 2.7953 -0.7044 5.2845 0.8985 -1.6459 3.9678 -0.9252 -1.9077 -2.9716 -0.2820 -0.7170 -2.3016 -1.1485 -1.5835 -4.3671 2.8392 -0.5305 2.7546 -0.0764 -1.0165 -0.9251 -0.5500 3.2228 4.6313 -1.1311 2.0116 4.6884 0.8920 3.3249 4.5055 -4.7961 -1.4653 -5.0897 -3.6486 -1.7047 -7.0056 -3.5638 -1.4693 -4.2565 -2.4650 -1.7402 -6.3772 -0.3205 0.8154 4.5613 1.6433 2.2127 4.4209 2.7934 1.2768 1.0559 1.4180 0.8958 -0.9056 1.4509 -0.7453 0.8788 -4.8613 -1.5606 -6.3799 2.4059 1.6673 -0.1719 -2.4089 -1.6173 -4.9308 2.2297 0.0654 1.6177 0.9730 -0.2831 -0.4191 1.0145 0.9064 4.4059 1.8667 -0.5773 4.1706
1.5594 3.2380 -0.7029 1.7730 -1.3627 4.6846 0.1813 -1.6197 2.7843 0.2945 -2.0417 -3.7982 1.2875 -0.9819 -3.3849 -0.7159 -1.4143 -4.6300 2.4720 -0.5393 2.3863 2.0170 -1.4158 -2.2406 -0.8260 3.0042 4.8928 0.3218 2.5687 5.4419 -1.4046 2.2909 3.7692 -3.9112 -1.1665 -2.7404 -4.3085 -0.9270 -4.9392 -2.4491 -1.3399 -2.9428 -3.0176 -1.0876 -5.2644 0.9634 1.3718 4.9266 -0.8090 1.1814 3.2979 1.9427 1.3697 0.8810 1.8660 0.8829 -1.4910 2.1639 -0.9301 0.0975 -4.8019 -0.9632 -3.6589 1.8063 1.8138 -0.3801 -2.0320 -1.3114 -4.2220 2.0782 -0.0518 1.1127 1.9661 -0.4449 -1.2653 0.4115 0.6862 3.9063 1.1710 -0.8097 3.4796
3.7666 2.8974 -0.5446 2.1749 -0.8366 5.2494 0.6271 -1.7283 3.5103 -1.2313 -0.5194 -2.7089 0.1935 -0.0831 -2.4767 -1.4160 -0.8644 -4.1070 2.8060 -0.6200 2.8011 0.7614 -0.9012 -1.4546 -0.8714 3.1293 4.3773 0.3244 2.9939 4.9783 -1.3562 2.0909 3.4860 -4.9694 -1.8887 -4.5309 -3.7875 -2.4894 -6.3477 -3.7882 -1.2722 -3.8760 -2.6441 -1.9786 -5.8673 1.0859 1.7697 4.8023 -0.6295 0.9768 3.2944 3.1589 1.2517 1.2087 2.2837 0.9390 -1.0320 1.8118 -0.7109 0.6798 -4.9947 -2.4596 -5.6935 3.0831 1.6730 -0.0666 -2.6298 -1.3523 -4.5572 2.4791 0.0294 1.5825 1.6020 -0.1636 -0.6545 0.6266 0.7939 3.9951 1.5329 -0.6768 3.9521
3.2858 2.7736 -0.9261 2.3918 -1.0417 5.1421 0.4298 -1.4416 3.6615 -0.6664 -1.6153 -3.1791 -0.4179 -0.3251 -2.4352 -1.0923 -1.2955 -4.5269 2.6126 -0.5703 2.6601 -0.2973 -0.6093 -1.0459 -0.0751 3.3892 5.3519 1.1421 2.9736 5.7446 -0.8342 2.6027 4.3977 -4.6308 -2.3499 -4.9816 -3.7113 -1.8850 -6.9791 -3.3732 -2.0576 -4.2455 -2.5149 -1.6014 -6.4445 1.6667 1.7095 5.2603 -0.3329 1.4472 3.9287 2.8451 1.2406 0.9780 1.4612 1.0625 -1.0073 1.2415 -0.5754 0.7633 -4.8184 -2.2618 -6.2604 2.5421 1.6795 -0.2578 -2.3289 -1.6808 -5.0068 2.1086 0.1171 1.5230 0.8459 -0.0422 -0.5326 0.9529 0.9646 4.3946 1.5674 -0.6073 4.0228
0.7233 2.7023 -0.8715 2.6623 -0.6088 5.1056 0.7626 -1.4501 3.7272 -0.4097 -2.2020 -3.1273 1.0530 -1.9420 -2.8415 -0.7406 -1.5940 -4.3978 2.7242 -0.2385 2.5960 1.2744 -2.1507 -1.4497 -0.6062 3.3770 4.8483 -1.2153 2.1889 4.6872 0.8406 3.4653 4.7574 -3.7721 -0.7887 -6.3564 -4.3578 -1.0327 -4.2012 -2.3440 -1.0974 -6.0869 -3.1059 -1.3225 -3.8185 -0.4254 1.0057 4.4047 1.5699 2.3602 4.5176 1.6441 1.2553 0.9209 1.0807 0.2513 -1.2117 2.0470 -1.1155 0.5441 -4.7343 -0.7487 -5.4901 1.1817 1.4013 -0.3331 -2.0407 -1.3651 -4.8038 2.0103 -0.0659 1.3822 1.5212 -0.9601 -0.8078 0.9157 1.0819 4.3083 1.7410 -0.4064 3.9979
3.0193 3.2162 -1.0776 2.1095 -0.3738 5.0748 1.2788 -1.8332 3.2368 -0.2994 -1.3245 -2.5389 1.1712 -1.0927 -2.7734 -1.0649 -0.6768 -3.5879 2.9437 0.0260 2.7138 1.9057 -1.5337 -1.6317 -2.0769 2.0680 3.5732 -1.0185 2.4104 4.3291 -1.9983 0.9101 2.7017 -4.5515 -1.9349 -3.2891 -4.3691 -0.6504 -5.1243 -3.1334 -1.7230 -2.9066 -3.0744 -0.3821 -4.8998 0.1802 1.5911 4.3109 -0.8766 0.1705 2.6667 2.8102 1.6820 0.8691 2.5611 0.7824 -1.3696 2.4537 -0.7061 0.5405 -5.1540 -1.4451 -4.3259 2.8058 1.8865 -0.4610 -2.4102 -0.9562 -3.7434 2.5948 0.3406 1.3736 2.3044 -0.4501 -0.8848 0.2467 0.5010 3.5225 1.6421 -0.5023 3.7013
4.0155 1.3125 -0.7627 0.4419 -1.4758 4.7660 -1.2348 -0.4234 3.2584 -1.5193 0.7875 -3.7734 -0.5531 1.3894 -2.7889 -1.0128 -0.5005 -4.2038 1.0210 -1.1628 2.3240 -0.8293 0.8689 -1.4937 1.6130 3.4258 5.2598 2.3166 2.2934 5.4376 0.3850 3.3987 4.4861 -3.9221 -2.6066 -5.1505 -2.0749 -3.8797 -5.0238 -3.1890 -1.3665 -4.7951 -1.2952 -2.8432 -4.6832 1.8370 1.0458 4.8711 -0.0403 2.2451 3.9417 2.5269 0.2000 0.8931 1.5594 1.1028 -1.1384 0.1716 -0.1602 0.3944 -3.4243 -3.7971 -5.2606 2.6959 0.8512 -0.2725 -1.8747 -1.5205 -4.5501 1.1969 -0.2434 1.2587 0.3436 0.6014 -0.8325 0.6912 1.0119 4.1635 0.1544 -0.5548 3.6747
1.1840 2.9613 -1.1809 1.8715 -1.0921 4.6475 0.4619 -1.7908 2.7099 0.2419 -2.3539 -3.2189 1.5104 -1.5390 -3.3376 -0.7119 -1.8487 -4.1882 2.5108 -0.2909 2.3225 2.3239 -1.7181 -2.1806 -1.5712 2.7407 4.0599 -1.9865 1.6154 3.4519 -0.2061 2.8375 4.5444 -4.0905 -0.3314 -4.1947 -3.2697 -0.2441 -2.1046 -2.8836 -1.0187 -4.7253 -2.1276 -0.8551 -2.4496 -1.0602 0.5148 3.2585 0.6463 1.8115 4.3701 1.7267 1.3330 0.6083 1.8810 0.6164 -1.7028 2.4075 -0.9478 0.0794 -4.2937 0.0447 -2.9716 1.6114 1.6282 -0.6982 -1.9148 -1.2700 -3.8261 2.0992 -0.0110 0.9935 2.1888 -0.6444 -1.3307 0.2153 0.6096 3.6815 1.2352 -0.7571 3.3825
0.1709 2.7258 -0.7175 2.9649 -0.4756 4.8994 1.1093 -1.4967 3.5890 -0.1774 -2.1646 -3.3521 1.2002 -1.5953 -3.0944 -0.7649 -1.4604 -4.4720 2.8579 -0.0504 2.4094 1.5484 -1.8792 -1.7409 -0.5700 3.1179 5.2899 0.7726 3.1479 5.3605 -1.2332 1.9756 4.6898 -4.4636 -1.3141 -4.0973 -3.8935 -0.9091 -6.2321 -3.0510 -1.5023 -3.6699 -2.5848 -1.0659 -5.9878 1.5491 2.0291 4.8580 -0.5069 0.9639 4.1822 1.4505 1.3472 0.9056 0.9279 0.4110 -1.2655 2.2377 -0.8845 0.3141 -4.8826 -1.0234 -5.2885 0.8861 1.4961 -0.3050 -2.1312 -1.3766 -4.6445 2.0738 0.0827 1.2349 1.6035 -0.7253 -0.9924 0.9400 0.9743 4.2802 1.9662 -0.3481 3.8471
3.1589 3.1949 -1.1150 1.7304 -0.4832 4.9047 1.1538 -1.9728 2.9948 0.0654 -1.7480 -3.0461 1.4077 -1.0724 -2.9384 -0.9478 -0.8868 -2.4682 2.7572 -0.0158 2.6403 2.0987 -1.5504 -1.7860 -2.2686 1.8585 2.5416 -1.8914 0.8378 1.7513 -1.5297 2.1415 3.7583 -4.1896 -1.6176 -4.1416 -4.4218 0.1451 -2.7664 -2.7587 -1.8039 -3.7880 -3.1435 0.0944 -2.3651 -0.7258 0.0458 2.0999 -0.4531 1.4028 4.0788 2.7727 1.6508 0.7984 2.7229 0.7637 -1.4563 2.4807 -0.7405 0.4287 -4.9899 -0.7110 -3.6767 2.8813 1.8641 -0.5260 -2.2557 -0.9164 -2.9100 2.5298 0.3032 1.2756 2.4437 -0.4751 -1.0007 -0.0244 0.3177 3.2178 1.3968 -0.6267 3.4943
4.2424 2.6090 -0.3932 0.4736 -1.7306 4.0210 -0.2952 -2.1207 1.6816 -0.0449 0.2111 -4.0414 1.3948 0.1494 -3.5931 -0.9073 0.5592 -2.9275 1.9769 -1.0262 2.1007 1.6048 -0.8728 -2.6202 -1.9118 2.6629 2.6381 -2.2981 1.6245 1.8758 -0.7665 2.5238 3.5193 -2.9844 -2.4350 -2.1947 -3.7482 -0.6803 -1.0179 -1.9051 -1.6383 -2.8285 -2.8304 0.1555 -1.5259 -1.5473 0.3836 1.9128 -0.0832 1.3659 3.5616 2.9617 0.9104 0.9026 2.9949 0.7709 -1.5168 1.8170 -0.9143 -0.2356 -3.8543 -2.0117 -1.3339 3.3854 1.4065 -0.2745 -1.8519 -0.3412 -2.4729 2.1140 -0.2673 0.9064 2.1704 -0.2966 -1.5042 -0.4703 0.2574 2.7110 0.3632 -1.2551 2.6493
3.3339 3.0887 -0.8202 1.1836 -1.2236 4.4660 0.2626 -2.1456 2.3461 0.3208 -1.0260 -4.2749 1.6560 -0.7134 -3.6404 -0.6803 -0.1150 -3.7528 2.3201 -0.6443 2.2773 1.7212 -1.3173 -2.3513 -2.1697 2.3591 3.2093 -1.0829 2.3473 4.0012 -2.3560 1.3092 2.2246 -3.2091 -2.0881 -1.8648 -3.9065 0.0369 -2.0819 -1.9495 -1.8334 -2.6111 -2.8210 0.3995 -2.7801 -0.1138 1.2731 3.8834 -1.4606 0.3107 2.1273 2.7002 1.2899 0.7692 2.5281 0.8555 -1.6119 1.9860 -0.8965 -0.0263 -4.1374 -1.2257 -1.5957 2.8476 1.7270 -0.4948 -1.7851 -0.5764 -3.0636 2.1896 -0.0468 0.9955 2.0819 -0.4003 -1.3921 -0.3006 0.2751 2.9973 0.8410 -1.0195 3.0646
1.6262 2.8383 -1.1934 2.1947 -0.3502 4.9348 0.9406 -1.9300 3.4754 0.1641 -2.3332 -3.7247 1.4803 -1.8405 -3.1654 -0.5394 -1.2157 -4.3216 2.6799 -0.3686 2.4501 1.4611 -2.0541 -1.7578 -1.9202 2.3337 3.2500 -2.1083 1.0106 3.0988 -0.6038 2.8430 3.5905 -3.7267 0.6176 -3.8762 -3.5021 -0.8441 -2.1859 -2.4509 0.1970 -4.5134 -2.3392 -1.3194 -2.6540 -0.9910 0.0993 3.2580 0.4218 1.9914 3.7701 2.0656 1.2719 0.6798 1.5872 0.3558 -1.5153 2.1175 -1.1351 0.3229 -4.2334 0.1559 -2.7770 1.7768 1.4820 -0.6171 -1.7717 -0.7731 -3.8747 2.1521 -0.0893 1.1643 1.7856 -0.9066 -1.0771 0.2309 0.5655 3.5793 1.5023 -0.6021 3.6796
-0.2317 2.2696 -1.0481 3.0538 -0.1366 4.7829 1.2853 -1.4769 3.6437 -0.3699 -2.7877 -3.0161 1.0550 -2.2941 -2.8725 -0.8656 -2.3967 -4.3181 2.7665 0.1150 2.2721 1.4017 -2.3483 -1.4919 -1.0777 2.9563 4.7602 -1.4218 1.6649 4.6102 0.3082 3.3598 4.6015 -3.5542 -0.3096 -5.7721 -3.2907 0.2684 -3.6171 -2.5172 -1.3715 -5.6944 -2.3389 -0.6532 -3.4098 -0.4060 0.6794 4.2939 1.2470 2.4415 4.3097 1.1862 1.1972 0.6793 0.6764 -0.0443 -1.3384 2.1200 -1.0264 0.3447 -3.9227 0.4838 -4.8167 0.5780 1.1486 -0.5186 -1.9179 -1.5180 -4.4989 1.9140 0.0359 1.1412 1.4391 -1.0871 -0.9437 0.8797 1.0478 4.1376 2.0035 -0.2180 3.7794
0.2429 2.5208 -2.5814 1.3734 -1.2822 3.3374 -0.7075 -0.2687 2.3610 0.5354 -2.9525 -3.6931 1.8026 -2.2663 -3.2284 -0.2242 -2.0230 -4.5066 1.5993 0.8022 1.8738 1.7256 -2.1107 -1.8154 -0.0072 2.2942 6.7499 -0.5713 1.0870 6.5688 0.8350 2.8609 5.7125 -3.1564 -0.7480 -2.5953 -3.2916 -0.0867 -4.7383 -1.8944 -1.4997 -2.8245 -2.1662 -0.7284 -5.0831 -0.3434 0.3624 5.3322 1.0355 2.1874 4.5663 0.8478 1.6774 -0.3283 1.1268 0.2053 -2.2353 1.7547 -0.5650 -0.0264 -3.8232 -0.0675 -3.4732 0.7644 1.4872 -1.6574 -1.4157 -1.4651 -4.0823 1.3119 0.5879 0.5013 1.6042 -0.7899 -1.4561 0.4336 0.8862 4.3628 0.6081 -0.1052 2.9589
3.6009 1.4397 -0.2523 -0.4110 -1.0606 4.8542 -1.5055 0.7569 3.5497 -1.3502 0.6135 -4.1207 -0.5176 1.3027 -3.0755 -0.8513 -0.7348 -4.2987 0.0824 -0.8676 2.3871 -1.0496 1.0043 -1.7882 2.9392 2.7445 5.3291 2.9835 1.4199 5.5567 1.8594 3.3037 4.5371 -3.6205 -2.7922 -5.6710 -1.9702 -4.1322 -4.9433 -2.8895 -1.5547 -5.2999 -1.2086 -3.1019 -4.5488 1.9393 0.5582 5.0331 0.9088 2.4982 4.0322 1.8570 0.3479 1.1386 1.2381 1.2249 -1.0307 -0.4161 0.0542 0.3039 -3.2124 -4.0114 -5.5138 2.2179 0.9796 0.0085 -1.6894 -1.7446 -4.7218 0.4722 -0.0379 1.3083 -0.0186 0.7446 -0.9165 0.9250 1.0749 4.3128 -0.3132 -0.0300 3.8299
2.5050 2.9525 -0.8940 -0.8273 -1.8770 3.1075 -1.3596 -0.2928 1.2559 0.3251 -0.8758 -4.7376 1.7271 -0.6477 -4.2186 -0.6078 -0.0246 -4.0195 1.0738 -1.0945 1.6022 1.9666 -1.4291 -3.0462 -0.2679 2.6753 5.3082 -0.0302 1.4044 5.6784 -0.4739 2.9917 3.9068 -3.2574 -0.5000 -1.4706 -2.2076 -2.4596 -1.7945 -2.4106 0.2141 -2.4634 -1.3982 -1.9490 -2.7309 -0.0226 0.3477 4.6814 -0.4547 2.0121 2.9860 1.6905 0.9747 0.3588 2.3515 0.6935 -1.9522 1.5387 -1.2218 -0.6930 -3.1755 -1.7483 -1.1328 2.1632 1.5171 -0.7755 -1.4897 -0.5426 -3.0866 1.3413 -0.4291 0.3761 1.9905 -0.6070 -1.9398 -0.2368 0.6325 3.3820 -0.4536 -0.7168 2.3122
0.9652 2.7099 -1.3917 2.2685 -0.3630 4.7643 1.0457 -1.8383 3.1678 -0.0446 -2.7390 -2.8337 1.2078 -1.9373 -3.1112 -1.0364 -1.9054 -2.1787 2.7155 -0.1266 2.2764 2.1098 -2.0304 -2.0098 -1.9430 2.3387 3.3383 -2.1165 1.0132 3.1899 -0.6275 2.8646 3.6557 -3.2075 -0.2724 -4.7243 -3.4986 0.7132 -2.7255 -2.2251 -1.2495 -4.1861 -2.6214 -0.0960 -2.1152 -0.9759 0.1200 3.2829 0.4253 2.0328 3.7492 1.6877 1.2699 0.4951 1.6619 0.3339 -1.7352 2.4502 -1.0158 0.1262 -3.8226 0.6532 -4.0581 1.4440 1.4322 -0.8162 -1.9337 -1.1218 -2.8788 2.1648 -0.0106 0.9729 2.0834 -0.8647 -1.2780 0.2558 0.6090 3.5253 1.5676 -0.5199 3.4982
0.1028 2.5569 -1.4184 2.4643 -0.6654 4.5699 1.0027 -1.8342 2.9153 0.4107 -2.4209 -3.9563 1.6982 -1.8130 -3.4376 -0.4490 -1.3684 -4.4718 2.5559 0.0652 2.1227 1.7620 -2.0179 -2.0274 -1.5885 2.4698 4.3399 -0.3052 2.6579 4.6956 -1.9653 1.2812 3.5971 -3.1037 -0.7129 -1.9478 -3.4823 0.5303 -3.7812 -1.9014 -1.3516 -2.5381 -2.4264 0.0238 -4.4359 0.6933 1.6592 4.3590 -1.0427 0.3466 3.3101 1.2481 1.3203 0.4082 1.0871 0.2899 -1.7770 2.2152 -0.8849 0.0159 -3.8477 0.1911 -2.5020 0.8520 1.3998 -0.8747 -1.5725 -0.9510 -3.7803 1.9011 0.1104 0.8633 1.7510 -0.8110 -1.3641 0.3360 0.5299 3.7177 1.6045 -0.6010 3.3979
2.7386 2.9175 -2.2650 -0.6963 -0.7995 2.2418 -0.7412 1.6310 1.6383 0.5076 -2.5473 -3.9763 1.7685 -1.8049 -3.6061 -0.4584 -1.5959 -4.4924 1.5272 0.4250 1.8693 2.0172 -1.9462 -2.2089 -0.4611 1.3877 6.7962 -0.0702 0.1821 6.3454 -0.6619 2.4777 5.8593 -3.8269 -0.3620 -3.5653 -3.1194 -1.7842 -1.9762 -2.5902 -0.5241 -4.3754 -1.9603 -2.0226 -2.6047 0.1075 -0.0376 4.9203 -0.4818 2.2744 4.5424 2.0621 1.7217 -0.1947 2.4425 0.4375 -2.2155 1.7371 -0.6984 -0.1875 -4.0963 -0.9378 -2.4365 2.4069 1.6960 -1.4947 -1.6698 -1.3631 -3.8666 1.6946 0.4813 0.4568 2.0495 -0.7054 -1.6136 -0.1014 0.9649 4.0447 -0.1242 0.5321 2.3649
2.6836 3.0700 -1.4129 2.0130 -0.1427 4.9760 1.4941 -1.8954 3.2808 -0.1242 -2.2549 -2.8011 1.1745 -1.4847 -2.7953 -0.9976 -1.6539 -3.7918 2.8334 0.1625 2.5932 1.9229 -1.7853 -1.6217 -2.4127 1.3920 2.7369 -2.2268 0.0627 2.6564 -1.3221 2.2491 3.1660 -3.7365 0.1998 -2.0877 -4.2469 -0.0884 -4.2566 -2.4404 -0.5168 -2.2138 -3.1184 -0.7677 -4.5060 -0.9282 -0.5047 2.9680 -0.1243 1.7173 3.4679 2.5825 1.6653 0.6349 2.3967 0.5917 -1.5331 2.3888 -0.7568 0.4803 -4.5955 0.4230 -3.0316 2.5610 1.7736 -0.7063 -2.1605 -0.9969 -3.4395 2.4524 0.3532 1.2372 2.2232 -0.6177 -0.9589 0.0940 0.2895 3.3398 1.6140 -0.4840 3.6187
4.7624 1.9963 -0.5179 2.2099 1.1319 4.0270 1.1775 -0.9688 4.8897 -0.2739 0.9618 -2.8956 0.9056 0.0254 -3.0321 -1.3285 0.5380 -3.7953 2.3205 -0.9979 2.6172 0.9712 -0.8319 -1.8942 -2.4455 1.0966 1.7715 -1.9375 -0.1431 1.6589 -1.8084 2.0595 2.6514 -3.7226 -1.5545 -1.8661 -4.2528 -1.6071 -4.0497 -2.5936 -0.6144 -2.0827 -3.2619 -0.7693 -4.3861 -0.7427 -0.5017 2.3989 -0.6879 1.7272 3.3166 3.5141 0.5888 1.0983 2.8987 0.4957 -1.2467 1.7474 -0.9160 0.3534 -4.5084 -2.0423 -2.7733 3.7212 1.0043 -0.1640 -2.3686 -0.2613 -3.3617 2.4601 -0.3685 1.3523 1.9094 -0.3875 -0.9933 -0.1011 0.4127 3.1522 1.4354 -0.0739 3.7712
2.6529 3.1020 -1.4305 1.7556 -0.2289 4.8669 1.3741 -1.9607 3.1140 0.1383 -1.8599 -3.0524 1.5976 -1.4756 -3.0241 -0.6468 -0.6956 -3.4193 2.7068 0.1380 2.5425 2.1510 -1.7726 -1.7440 -2.5661 1.2508 2.3968 -2.3478 -0.0736 2.3130 -1.5208 2.1244 2.8986 -4.0006 -1.0149 -1.8462 -4.0841 0.5054 -3.4989 -2.5553 -1.2827 -2.0588 -2.7883 0.3492 -3.8082 -1.0536 -0.6159 2.6807 -0.3308 1.6136 3.2624 2.4998 1.6618 0.5936 2.5258 0.6184 -1.5948 2.4642 -0.7650 0.3937 -4.7377 -0.1762 -2.5025 2.5691 1.7919 -0.7441 -1.9777 -0.5964 -3.0620 2.4047 0.3334 1.1676 2.3987 -0.6102 -1.0517 -0.0728 0.1935 3.1253 1.4440 -0.5540 3.4823
4.4291 1.1827 -1.2605 -0.6853 1.7983 3.0801 1.5871 2.8473 3.0186 -0.5655 -1.3295 -3.8764 -0.0520 -0.0474 -3.2629 -1.5867 -1.0137 -4.8558 1.3341 0.3382 2.5364 -0.3086 -0.0905 -1.8623 1.0101 1.0739 7.8472 1.5097 0.1692 6.9858 0.4081 2.2955 7.3447 -3.9804 -3.8540 -5.1074 -4.1905 -2.5211 -6.9039 -2.9016 -3.0190 -4.5162 -3.2191 -1.6924 -6.4942 1.4349 0.4080 5.5538 0.3496 2.5200 6.0202 2.8887 0.8678 0.6569 2.0241 0.5553 -1.5912 0.5773 0.1754 0.3226 -4.6067 -3.6362 -6.2203 3.1031 0.8794 -0.6715 -2.5331 -1.9452 -5.2395 1.5627 0.5617 1.1501 0.8035 0.2194 -1.1183 0.8696 1.5364 5.0881 0.7378 1.7204 3.3759
1.8206 2.8482 -1.8394 2.3530 0.2565 4.8437 1.5979 -1.5642 3.3217 -0.2570 -2.7372 -2.3933 1.0362 -2.0050 -2.6704 -1.2865 -1.7824 -2.0280 2.8536 0.4398 2.3622 1.8932 -2.0614 -1.5329 -2.3072 1.8011 3.5984 -1.2254 2.4484 4.0675 -2.1561 0.5028 2.9678 -3.2103 -0.7466 -5.0467 -3.8174 0.5061 -3.2834 -2.2441 -1.5468 -4.2472 -2.9795 -0.1295 -2.4521 0.0841 1.8246 3.9886 -0.9410 -0.0652 2.8834 2.1532 1.6689 0.3222 1.9496 0.3575 -1.7081 2.3983 -0.7544 0.3981 -3.9572 0.2216 -4.6185 1.9804 1.6301 -1.0116 -2.1371 -1.2025 -2.9504 2.3330 0.4247 1.0415 2.0698 -0.7969 -1.0189 0.2204 0.6023 3.4390 1.7755 -0.1403 3.5669
3.4457 2.9685 -1.9105 -1.2306 0.0588 1.4416 -0.1976 2.3197 1.7613 0.4171 -1.6344 -4.6158 1.7329 -1.1770 -4.0341 -0.6402 -0.7410 -4.1800 1.3139 0.2309 1.6646 1.8594 -1.6094 -2.6790 -0.6331 0.7112 6.5849 0.4147 1.3178 5.9987 -1.6602 0.0937 5.7664 -2.7782 -2.6144 -1.7825 -3.7621 -0.6640 -2.3120 -1.6105 -2.3517 -2.6601 -2.7737 -0.3050 -3.1440 0.5240 1.3401 4.5498 -1.5605 0.1255 4.4259 2.3436 1.6570 -0.1091 2.7369 0.6011 -2.2521 1.5681 -0.6255 -0.5093 -3.7972 -1.8362 -1.5984 2.8342 1.7373 -1.3586 -1.6378 -1.1870 -3.3343 1.6702 0.4421 0.3031 2.0639 -0.5071 -1.8779 -0.4173 0.7494 3.7877 -0.2257 0.8995 2.0740
4.6558 1.4042 -1.1920 -0.8819 1.4850 2.7207 1.1934 2.8807 2.8487 -0.6604 -0.4044 -4.3543 0.5231 -0.4226 -3.4209 -0.9945 -1.7732 -4.6885 1.3805 0.3561 2.4025 0.0647 -0.0863 -2.1151 0.6819 1.0912 7.6495 1.8000 1.0889 6.9013 -0.6054 1.3205 7.0202 -4.6385 -1.9565 -5.4019 -3.7956 -4.0302 -5.1949 -3.3174 -1.3119 -5.1866 -2.5509 -3.5816 -4.9784 1.7138 1.2611 5.4591 -0.6769 1.5227 5.6933 3.0005 1.0227 0.6264 2.3363 0.6100 -1.6666 0.8073 0.0751 0.1422 -4.8887 -3.2275 -5.4060 3.3198 1.0161 -0.6810 -2.2945 -2.1539 -4.9486 1.6749 0.5953 1.0286 1.1351 0.1296 -1.2796 0.5171 1.4518 4.8713 0.5005 1.6370 3.1506
4.4806 -0.5430 -1.1620 -0.6932 2.3343 2.1581 1.7593 2.2712 2.6842 -0.5419 0.4842 -5.0556 0.5974 0.6817 -4.0833 -0.8301 -0.9322 -5.1799 0.5778 0.1186 1.8655 0.0486 0.8601 -2.7786 -0.3489 0.9548 7.1120 -1.2571 1.5592 6.3255 0.8674 0.4169 6.5301 -3.5207 -1.8493 -2.7715 -2.5635 -3.7088 -3.5947 -2.6736 -0.9533 -3.6022 -1.7261 -3.0188 -4.3822 -1.0025 1.6976 4.9021 1.0870 0.5230 5.2073 2.5797 -0.1536 0.3930 2.2354 0.1667 -1.9880 0.3776 0.4660 -0.4535 -3.4766 -3.1438 -2.7394 3.0795 -0.1702 -0.8566 -1.7566 -1.5677 -4.3732 1.1964 0.2311 0.5870 0.9295 0.4554 -1.8052 0.1200 1.1910 4.3549 0.4546 1.6290 2.7061
2.2362 2.9152 -1.6947 2.0343 0.1309 4.8500 1.5035 -1.7610 3.3215 -0.1767 -2.6335 -2.6073 1.0766 -1.8043 -2.7588 -1.2066 -1.8482 -1.9543 2.7996 0.2509 2.4417 1.9325 -1.9911 -1.6341 -2.4044 1.5267 2.5401 -1.9421 0.4591 1.8653 -1.6520 2.0536 3.6638 -3.2865 -0.1218 -4.5160 -3.8182 0.6280 -2.4652 -2.2761 -1.0767 -3.9899 -2.9342 -0.1782 -1.8605 -0.6734 -0.1391 2.2386 -0.4712 1.5048 3.9974 2.3253 1.6152 0.4210 2.1767 0.4182 -1.6813 2.4244 -0.8210 0.3893 -4.0234 0.6860 -3.8212 2.2428 1.6518 -0.9213 -2.1081 -1.0696 -2.6544 2.3913 0.3295 1.0848 2.1767 -0.7721 -1.0445 0.0479 0.3716 3.2557 1.6049 -0.3247 3.5343
3.3910 2.7559 -1.4707 0.4571 -1.9277 3.4978 -0.5441 -1.5343 1.2478 0.0707 -1.2592 -4.2229 1.5644 -1.1454 -4.0261 -0.5829 -0.1071 -3.6280 1.7981 -0.6121 1.7935 1.9520 -1.7499 -2.7927 -2.1243 2.4445 4.0553 -2.7196 1.3100 3.6472 -0.6812 2.5743 3.9644 -2.9963 0.5053 -0.8822 -2.6859 -1.7103 -1.0892 -2.0541 0.8235 -1.9882 -1.8015 -1.5648 -2.0847 -1.9148 0.2272 3.1141 0.0573 1.5697 3.4598 2.4199 1.1568 0.1673 2.7561 0.4331 -2.1244 1.8578 -1.1158 -0.4912 -3.3110 -0.6730 -0.4447 2.8442 1.4357 -1.0794 -1.4713 -0.2373 -2.5752 1.8624 -0.1524 0.4488 2.2013 -0.7680 -1.8612 -0.5778 0.3551 2.9933 0.2323 -1.0339 2.3712
1.9873 2.3552 -1.3957 2.7401 -1.0030 4.9100 0.3784 -1.2105 4.1488 -2.2971 -1.8649 -2.3246 -2.1430 -0.5595 -1.5800 -1.4564 -1.8140 -3.5039 2.2228 -0.7739 2.4384 -1.6187 -0.8198 -0.2833 1.1652 3.8003 5.2423 2.3820 3.2446 5.1020 -0.0222 3.0279 4.9256 -3.5599 -1.4030 -6.5461 -1.4862 -2.0432 -7.1300 -3.2383 -1.4079 -5.0946 -1.0685 -2.1053 -5.8579 2.5019 1.8653 4.6649 0.0943 1.7507 4.5223 2.0634 0.9187 0.6270 0.1405 0.7575 -0.8445 0.3647 -0.7786 1.0173 -2.7540 -1.6893 -7.5191 1.4238 1.3342 -0.4816 -1.9832 -1.7781 -4.7797 1.4601 -0.1210 1.4347 -0.3628 -0.2799 -0.1411 1.4013 1.1335 4.4029 1.6645 -0.5361 4.0458
2.9519 0.5879 -1.5799 0.0146 -1.5869 4.5976 -1.6312 -0.1264 3.4235 -2.6074 1.0639 -3.6594 -1.8352 1.7938 -2.5835 -1.6866 0.3059 -4.4862 0.1982 -1.3034 2.0795 -1.9562 1.0546 -1.3717 2.2643 3.0589 4.5049 0.9360 3.1587 4.3194 2.9123 1.7633 4.4109 -1.3617 -3.1290 -3.0879 0.2178 -2.7891 -4.6498 -1.9612 -1.7849 -3.2900 -0.2087 -1.5460 -4.9161 0.1566 1.9713 4.0210 2.1876 0.6658 4.1305 1.6276 -0.2237 0.3572 0.4692 0.8755 -1.4704 -0.7995 -0.0571 0.3716 -0.3397 -3.6224 -3.7124 1.6847 0.3957 -0.8362 -1.3412 -1.0002 -4.1914 0.3401 -0.3924 0.9990 -0.7296 0.6834 -0.8785 0.7562 0.7695 3.9223 -0.2589 -0.5868 3.5760
3.1302 3.2995 -1.0668 1.1405 -0.6831 4.5376 0.8806 -2.1574 2.5484 0.3551 -1.2569 -3.4981 1.8155 -0.9073 -3.3516 -0.4570 -0.2396 -2.8549 2.4401 -0.1483 2.4265 2.3303 -1.4263 -2.1263 -2.7747 1.4978 2.1741 -1.8640 1.9612 3.0485 -2.5171 0.2678 1.4498 -3.7093 -1.8087 -1.9696 -3.8718 0.4250 -1.7790 -2.2854 -1.7467 -2.3847 -2.5984 0.6246 -2.1495 -0.6392 1.2170 3.2808 -1.3696 -0.4039 1.6463 2.6189 1.6274 0.7018 2.8541 0.8768 -1.5918 2.3986 -0.7378 0.1582 -4.4722 -0.8052 -1.6717 2.8646 1.9233 -0.5877 -1.7577 -0.5124 -2.4772 2.3448 0.2520 1.0674 2.5443 -0.3903 -1.2467 -0.4062 0.0645 2.6231 1.0048 -0.8130 3.0931
1.6695 2.4653 -2.1936 2.4005 0.5261 4.7395 1.7774 -1.4872 3.4089 -0.5664 -2.8109 -2.0248 0.8317 -2.4259 -2.4564 -1.3370 -1.6206 -1.7132 2.7894 0.5397 2.2293 1.7020 -2.3727 -1.3282 -2.4437 1.4236 3.0816 -2.1540 0.1105 3.0977 -1.3899 2.3991 3.2959 -3.0912 -0.4051 -4.7641 -3.1391 1.1806 -3.1720 -2.3544 -1.3627 -3.8982 -2.4657 0.4235 -2.2938 -0.7804 -0.3237 3.2734 -0.1184 1.9925 3.4586 2.0291 1.5294 0.0825 1.7985 0.0063 -1.7888 2.3077 -0.8653 0.4150 -3.4747 0.7905 -4.4445 1.8398 1.3466 -1.2373 -2.0349 -0.9104 -2.6713 2.2276 0.3727 0.9340 1.9494 -1.0647 -0.9809 0.2077 0.5797 3.4213 1.8193 -0.0369 3.5293
4.2440 2.8936 -0.6330 1.5374 1.9331 3.7862 1.1943 -0.2200 5.0031 0.0474 -0.0657 -3.0344 1.4600 -0.6001 -2.9851 -0.8573 -1.1036 -3.4881 2.5070 -0.2321 2.8184 1.7129 -1.2023 -1.7178 -2.5335 -0.1868 1.3812 -1.6901 -1.1945 1.6662 -2.2881 1.1384 1.9198 -4.5025 -1.7654 -3.3353 -4.0573 0.0929 -2.1524 -3.0788 -1.9570 -3.7210 -2.7459 0.0379 -2.4227 -0.5199 -0.9440 2.4862 -1.2012 1.3658 2.6773 3.2856 1.4252 1.1182 3.0430 0.7687 -1.2063 2.2110 -0.6859 0.5473 -4.9839 -0.8174 -2.5949 3.5180 1.6838 -0.1810 -2.2182 -1.0391 -3.2440 2.5737 0.2172 1.4731 2.3566 -0.3423 -0.8605 -0.2680 0.2934 2.9559 1.2539 0.5062 3.7434
0.5005 2.5093 -2.0251 2.7782 0.8438 4.5348 2.2066 -1.2991 3.4051 -0.1547 -2.9610 -3.0493 1.2469 -2.4687 -2.7513 -0.7861 -2.0723 -4.0103 2.7758 0.7467 2.0021 1.3663 -2.2662 -1.3442 -2.2686 1.2586 4.0199 -1.2898 2.1738 4.1388 -1.9400 -0.1065 3.6517 -3.1031 0.1723 -2.1527 -3.0655 0.7557 -4.3226 -2.1609 -0.9554 -2.3613 -2.2154 -0.2291 -4.6502 0.0927 1.7922 3.9074 -0.6577 -0.4583 3.4545 1.4868 1.6291 0.0783 1.0829 0.0954 -1.7509 2.1747 -0.7003 0.2580 -3.5301 0.9993 -3.0537 1.0563 1.4270 -1.1796 -1.7140 -1.1223 -3.6198 2.0113 0.5072 0.8293 1.6161 -0.9395 -1.0681 0.4045 0.5174 3.6027 2.0859 0.1511 3.4566
3.2915 0.6186 -0.8204 -1.6482 0.9307 4.4102 -0.4642 2.5308 2.8958 -1.9147 0.8227 -4.5242 -0.9247 1.2691 -3.4729 -1.3574 -0.2837 -5.2790 -0.4952 0.0075 2.3394 -1.4373 0.8995 -2.1944 3.1801 1.1305 6.1778 2.2667 2.1136 6.2615 2.9732 0.0332 5.2503 -2.3933 -3.4782 -3.6724 -0.8891 -3.8910 -5.2898 -2.3952 -2.0163 -3.9385 -0.7886 -2.5975 -5.6278 1.0931 2.0816 5.4086 1.8817 0.0102 4.4645 1.4333 0.4016 0.8081 0.8957 0.7730 -1.5277 -0.8951 0.5242 0.0934 -1.6887 -4.3760 -4.2852 1.8564 0.5964 -0.4535 -1.5600 -1.6001 -4.9086 0.0126 0.4208 1.0797 -0.4301 0.7636 -1.2696 0.9097 1.0821 4.5217 -0.5121 1.2331 3.5528
0.9305 2.4402 -2.1310 2.4343 0.5986 4.6064 1.7473 -1.4656 3.3936 -0.0811 -2.8681 -3.1600 1.3629 -2.5443 -2.8395 -0.6230 -1.8186 -4.0051 2.6800 0.5136 2.0864 1.4874 -2.3848 -1.4278 -2.4575 1.5589 3.6497 -1.3990 2.3551 3.8846 -2.2493 0.1760 3.2628 -2.8969 1.0953 -3.6765 -3.0359 -0.1373 -1.8043 -1.8943 0.1846 -4.2942 -2.1523 -1.0426 -2.2465 -0.0526 1.8297 3.7541 -0.9996 -0.3065 3.1458 1.6592 1.4958 0.0474 1.3384 -0.0032 -1.8264 2.1660 -0.8751 0.2751 -3.4448 0.9662 -2.5098 1.3320 1.3232 -1.2457 -1.5443 -0.8854 -3.5566 2.0294 0.3387 0.8371 1.7328 -1.0707 -1.1011 0.1456 0.5376 3.4282 1.7849 -0.0112 3.4534
3.8343 3.2008 -0.9475 1.1931 2.2109 3.3285 1.1307 0.2192 4.8368 0.2519 -1.1389 -3.4298 1.6436 -0.6779 -3.0929 -0.7206 -0.2527 -2.8174 2.4346 0.0540 2.6456 2.0839 -1.2867 -1.8805 -2.7676 -0.6276 1.6176 -2.4132 0.6697 1.5907 -1.8667 -1.6136 2.1859 -3.9290 -2.1262 -2.6925 -4.2715 -0.0012 -2.0450 -2.4788 -1.9048 -2.9140 -2.9849 0.3381 -2.2148 -1.1485 1.0869 2.1680 -0.6895 -1.2271 2.7073 3.0780 1.6926 0.8747 3.0569 0.8724 -1.4015 2.2815 -0.5669 0.3955 -4.7895 -1.2510 -2.2786 3.3189 1.9132 -0.4290 -2.0335 -0.6581 -2.6711 2.5140 0.4213 1.2770 2.4877 -0.2905 -1.0205 -0.3237 0.1761 2.7173 1.1081 0.7677 3.4902
1.9322 1.8801 -0.9866 0.6627 -1.3443 5.1318 -1.0748 0.2177 4.2485 -3.4588 -0.4461 -3.1357 -2.7694 0.5060 -2.1856 -2.7953 -0.4031 -4.4237 0.3500 -1.1501 2.6139 -2.5552 -0.1832 -0.9572 3.1960 3.0896 4.2622 1.8965 3.2681 4.5590 3.6859 1.7647 3.9277 -0.1510 -3.0225 -4.5252 -0.0802 -1.7915 -6.4038 -1.3104 -2.2688 -3.9806 -1.1206 -1.0320 -6.0321 0.9853 2.1388 4.5264 2.8407 0.7190 3.9087 1.1456 0.4470 0.8742 -0.3572 0.8582 -0.9826 -1.0722 -0.5554 0.8593 0.4493 -2.8116 -5.6539 0.9156 1.0428 -0.3084 -1.7651 -1.2639 -4.7523 0.0834 -0.3109 1.4995 -1.3225 0.0975 -0.4214 1.4319 0.9120 4.1965 0.2577 -0.3580 4.1415
-1.2186 2.4711 -0.3793 2.6774 -1.0401 4.5798 0.2587 -0.6118 4.0978 -1.0217 -3.0258 -3.1347 -1.6119 -2.2994 -1.9479 -1.9420 -2.9341 -4.2519 2.0373 -0.2051 2.2595 -0.7154 -2.4184 -0.8488 2.0293 3.9247 5.7139 1.5265 2.8929 6.4145 2.4833 3.7177 4.3511 -1.0795 0.0597 -6.2903 -2.9279 -0.9168 -7.1140 -0.9251 -0.9571 -5.2178 -2.9083 -1.8954 -6.1976 1.4300 1.5811 5.8005 2.3950 2.4992 3.7899 0.3580 1.1668 1.0223 -0.9912 -0.0111 -0.6165 0.6117 -1.2406 0.7293 -2.0113 0.1020 -7.1893 -0.5798 1.2083 0.0587 -1.8649 -1.9202 -5.1885 0.9168 -0.1142 1.3946 -0.4136 -1.1926 -0.3060 1.8339 1.3872 4.5290 1.6531 -0.2278 3.9418
2.9725 2.7617 -2.0761 0.7466 2.9334 2.7936 1.6557 1.9005 4.8788 -0.2737 -2.0505 -2.0929 1.2256 -1.8940 -2.1828 -0.8666 -1.6990 -3.3717 2.6448 1.2053 2.6313 1.7847 -1.8520 -0.8700 -1.6999 -1.6365 3.0681 -0.4402 -1.8481 3.4886 -2.1665 -0.2821 2.8340 -4.1789 -0.1380 -2.7162 -4.0616 -0.7757 -4.8681 -2.8106 -0.6304 -2.4157 -2.8233 -1.2736 -4.7313 0.4577 -0.7233 3.6718 -1.3321 0.7572 3.0096 2.6925 2.0556 0.2895 2.4834 0.3926 -1.4619 2.2867 -0.2815 0.8589 -4.7837 -0.1848 -3.8608 2.7228 1.7533 -1.0206 -2.1566 -1.2047 -3.4422 2.4257 0.9997 1.2433 2.2032 -0.5768 -0.5656 0.0386 0.5325 3.4208 1.2532 1.7592 3.4879
1.8154 2.2117 -3.0194 -0.2277 2.9948 2.1674 1.2580 2.8766 4.1768 -0.5237 -2.7055 -1.1394 0.9131 -2.4741 -1.5545 -1.3061 -1.5083 -1.3872 2.1582 2.0482 1.9332 1.6831 -1.9851 -0.4589 -0.8958 -1.7874 4.0123 -1.6150 -0.9127 3.2863 0.4657 -1.4633 4.3978 -2.8456 -1.6392 -4.7775 -3.1372 0.4004 -3.8816 -2.1238 -2.1496 -3.5812 -2.4963 0.0738 -2.7503 -1.0488 0.3775 2.9376 0.9925 -0.2722 4.0651 1.8296 2.1828 -0.5350 1.8612 0.0718 -1.7326 1.9889 0.0800 0.6862 -3.3317 -0.4494 -4.9415 1.8346 1.5232 -1.7082 -1.9515 -1.2621 -2.5841 1.8712 1.4185 0.6936 1.8573 -0.6257 -0.5769 0.1985 0.6948 3.3310 0.7759 2.2805 2.9408

>  <OB_ATOM_TYPES> (1uvtB1)
C.3 O.2 O.2 C.3 C.3 N.pl3 N.pl3 O.3 C.ar C.ar C.ar C.ar C.ar C.ar C.ar C.ar C.ar C.ar C.ar C.ar N.ar C.ar C.ar C.ar C.ar C.ar S.O2

>  <ENSEMBLE_RMSD> (1uvtB1)
1.174 1.193 1.334 1.395 1.424 1.458 1.497 1.532 1.548 1.551 1.577 1.643 1.763 1.771 1.805 1.874 1.913 1.931 1.950 2.014 2.066 2.067 2.068 2.107 2.121 2.160 2.171 2.175 2.178 2.208 2.220 2.238 2.258 2.267 2.303 2.336 2.352 2.373 2.393 2.393 2.454 2.529 2.549 2.598 2.614 2.640 2.711 2.785 2.875 2.968

$$$$
