
 OpenBabel03071213D

 29 31  0  0  0  0  0  0  0  0999 V2000
   -1.2470    4.4960   20.0110 N   0  0  0  0  0
   -9.7470    7.8180   14.9620 O   0  0  0  0  0
   -0.2950    3.0770   18.5040 N   0  0  0  0  0
   -9.1550    6.0210   13.7920 O   0  0  0  0  0
  -10.9220    3.6130   15.8670 C   0  0  0  0  0
  -10.9610    2.0750   15.8140 C   0  0  0  0  0
   -9.4630    4.1060   15.8220 C   0  0  0  0  0
  -10.6070    1.5050   17.1480 N   0  0  0  0  0
   -7.2500    7.1260   18.9760 C   0  0  0  0  0
   -2.6130    5.0380   15.3470 C   0  0  0  0  0
   -9.8720   -2.0620   18.2980 C   0  0  0  0  0
  -10.3600   -2.1260   15.8870 C   0  0  0  0  0
   -8.3730    6.7730   18.1790 C   0  0  0  0  0
   -1.7320    4.5570   16.3530 C   0  0  0  0  0
   -5.9470    6.6880   18.6100 C   0  0  0  0  0
   -3.9220    5.4740   15.6960 C   0  0  0  0  0
  -10.0660   -0.6570   18.3040 C   0  0  0  0  0
  -10.5550   -0.7290   15.8870 C   0  0  0  0  0
   -6.8880    5.5390   16.6410 C   0  0  0  0  0
   -3.4610    4.9430   18.0600 C   0  0  0  0  0
  -10.0200   -2.7870   17.0900 N   0  0  0  0  0
   -9.4390    5.6200   16.1650 C   0  0  0  0  0
   -1.1890    3.9970   18.7960 C   0  0  0  0  0
   -9.4390    6.4980   14.8820 C   0  0  0  0  0
  -10.4080    0.0170   17.1050 C   0  0  0  0  0
   -8.2010    5.9810   17.0130 C   0  0  0  0  0
   -2.1530    4.5080   17.7090 C   0  0  0  0  0
   -5.7610    5.8960   17.4470 C   0  0  0  0  0
   -4.3480    5.4260   17.0570 C   0  0  0  0  0
  1 23  1  0  0  0
  2 24  1  0  0  0
  3 23  2  0  0  0
  4 24  2  0  0  0
  5  6  1  0  0  0
  5  7  1  0  0  0
  6  8  1  0  0  0
  7 22  1  0  0  0
  8 25  1  0  0  0
  9 13  2  0  0  0
  9 15  1  0  0  0
 10 14  1  0  0  0
 10 16  2  0  0  0
 11 17  1  0  0  0
 11 21  2  0  0  0
 12 18  2  0  0  0
 12 21  1  0  0  0
 13 26  1  0  0  0
 14 27  2  0  0  0
 15 28  2  0  0  0
 16 29  1  0  0  0
 17 25  2  0  0  0
 18 25  1  0  0  0
 19 26  2  0  0  0
 19 28  1  0  0  0
 20 27  1  0  0  0
 20 29  2  0  0  0
 22 24  1  0  0  0
 22 26  1  0  0  0
 23 27  1  0  0  0
 28 29  1  0  0  0
M  END
>  <MOLID> (1xkbB1)
1xkbB1

>  <SMILES_CANONICAL> (1xkbB1)
OC(=O)[C@H](c1cccc(c1)c1cccc(c1)C(=N)N)CCCNc1ccncc1	

>  <FINGERPRINT> (1xkbB1)
0000000000000001001000000000001000000001000000000000000000000000000000000001000001000001000000100000000000000001000001100000000000100000000011000000000001000001000001000000000000100000000000000000000000000000100000000000000000000000000000000001000000000000000000000001000000001001000000000000000000001000000010001100001100001000001100000000000000000100010000000000000110010000000000000000010100000000100010000001000000000001001000000000000000000000010000000000011000000000000000000000000000001100000000000000110000001000000001100000000000000000000000100000000000010000000000000000010001100000000000000000000000000000000000000000000000000001010000000001000000000001000000000001100000000100100010100000000000110001100000000000000000000000000000000101000000000000000100000000000000000000000000000000000010000000000000000000000010000000010010000000000010000000000000000001000000000000010000001100010100000000000000000100000000001000000000000000011000000000000000100100000000000100001000000000000000000000000000000000011001000000

>  <MACCS166> (1xkbB1)
000000000000000000000000000000000000010000101000010000000000010010000000000111010001000001100000011000010000001000000111101010000010101111110100111000101111111010111000

>  <OB_MW> (1xkbB1)
388.19

>  <OB_logP> (1xkbB1)
4.9662

>  <OB_PSA> (1xkbB1)
112.09

>  <OB_MR> (1xkbB1)
115.73

>  <OB_ATOMIC_CHARGES> (1xkbB1)
0.2047061673 -0.245303784 0.2047061673 -0.245303784 0.0242291889 0.1122265498 0.0174946604 -0.2375046938 -0.0003098164 0.0002552991 0.100207885 0.100207885 -0.0037413806 0.0079924056 -1.96156e-05 6.2529e-06 0.0367549831 0.0367549831 -0.0037412457 0.0079922706 -0.2422308858 0.1256622168 0.4766083988 0.3683386944 0.0683997143 -0.0118114673 0.0974774677 -0.0002970166 0.0002424993

>  <MCT_HBD> (1xkbB1)
4

>  <MCT_HBA> (1xkbB1)
6

>  <ENSEMBLE_TOTAL> (1xkbB1)
50

>  <ENSEMBLE_COORDS> (1xkbB1)
5.3898 0.7901 3.1300 -1.8832 1.8003 -3.1366 6.5894 -0.5793 1.6630 -3.0354 3.6544 -2.4917 -3.6913 0.0717 0.2949 -3.0346 -1.0816 1.0165 -2.8468 0.4804 -0.8886 -3.8069 -2.2908 0.8024 -0.2057 3.6382 1.5586 3.9532 0.3002 -1.5295 -3.1814 -5.7592 -0.3496 -1.3201 -4.5448 -0.6824 -1.3109 3.3038 0.8711 4.8854 0.0601 -0.4490 1.0558 2.9826 1.2714 2.7943 0.9329 -1.2848 -3.9153 -4.6153 0.2546 -1.8624 -3.4364 -0.1590 -0.0759 1.6451 -0.3808 3.2920 1.0748 1.0697 -1.9675 -5.7491 -0.8024 -2.5221 1.9585 -0.8506 5.5631 0.1941 1.8946 -2.5258 2.5739 -2.2272 -3.2320 -3.4583 0.3289 -1.2438 2.2731 -0.1503 4.5692 0.4318 0.8042 1.1433 1.9947 0.3530 2.4255 1.3539 0.0698
5.8779 2.5698 2.7721 -3.1626 3.7671 -0.7336 7.4760 1.8392 1.2309 -1.7721 4.0272 -2.5156 -2.9319 -0.4001 -1.7598 -3.5796 -1.3473 -0.7774 -3.1520 1.0182 -1.2854 -3.6379 -2.6790 -1.3468 -0.4530 1.6224 2.0335 4.5324 -0.1334 -1.0916 -3.7238 -6.1766 -0.1171 -3.7011 -4.7954 1.6542 -1.3356 1.8031 1.0377 5.5378 0.4790 -0.2479 0.9340 1.3393 1.7264 3.2295 0.1093 -0.8694 -3.7190 -5.0540 -1.0932 -3.7009 -3.6954 0.8878 0.4025 1.5051 -0.6187 3.7580 1.6104 0.9417 -3.7019 -6.0813 1.1748 -1.9085 1.8703 -1.4381 6.2263 1.9247 1.6000 -2.2557 3.3240 -1.6389 -3.6911 -3.8183 -0.5609 -0.8987 1.7254 -0.3477 5.1673 1.3181 0.7359 1.3865 1.3088 0.4526 2.7971 1.0195 0.1944
3.2877 -2.0792 0.0964 -1.1877 1.8357 -3.2041 5.5490 -1.7077 0.5575 -2.8744 3.3394 -2.9342 -3.2717 -0.0584 0.0240 -3.7275 -1.4589 -0.3131 -2.3188 0.4290 -1.0423 -3.4279 -2.3463 0.7941 -0.5204 4.2008 1.3726 4.9640 2.4881 0.7317 -2.0282 -5.7451 1.2826 -2.1869 -5.3460 -0.9223 -1.4612 3.6463 0.5888 5.1683 1.0593 0.6087 0.8231 3.6545 1.3903 3.7185 2.9923 0.7252 -2.6032 -4.4215 1.6442 -2.7203 -4.1301 -0.7375 0.1366 2.0415 -0.2599 2.7638 0.7847 0.5581 -1.8111 -6.1959 0.0875 -2.2373 1.9414 -1.0711 4.3432 -1.2356 0.3903 -2.1553 2.4571 -2.4855 -2.9260 -3.6237 0.6096 -1.1248 2.5124 -0.2563 4.1088 0.2350 0.5254 1.1731 2.6140 0.6017 2.5465 2.1168 0.6376
6.2532 2.3498 3.1169 -1.1751 0.8479 -2.5422 7.7537 1.5129 1.5320 -2.8667 2.3343 -2.2063 -3.1697 -0.8393 0.2116 -3.4515 -1.9638 -0.7601 -1.8012 -0.2562 -0.0528 -3.2339 -3.2394 -0.1038 0.0592 3.7780 1.6770 4.7799 1.4111 -1.4697 -4.7038 -6.6429 -0.1482 -6.1999 -5.2052 -1.0105 -0.9535 3.0678 1.1500 5.7971 1.4652 -0.4420 1.4312 3.4560 1.3345 3.5117 1.7402 -1.1746 -3.6838 -5.5799 0.0538 -5.3770 -4.1543 -0.8799 0.6079 1.6447 -0.0233 4.0796 2.1251 1.1369 -5.8921 -6.4912 -0.6417 -1.8594 1.2378 -0.2996 6.5426 1.8876 1.8463 -2.0378 1.5497 -1.7657 -4.0481 -4.3391 -0.3193 -0.6729 1.9621 0.2495 5.4640 1.8147 0.8136 1.7284 2.4100 0.5317 3.1179 2.1163 0.1860
4.2794 -1.5164 2.7342 -1.6520 3.3047 -3.0323 6.0526 -1.4391 1.2140 -3.1680 4.4793 -1.8067 -3.9172 -0.0092 -1.4488 -3.2916 -1.3820 -1.4220 -2.9893 0.9644 -2.1378 -3.2485 -1.8568 -0.0534 -1.0568 2.1007 2.0752 3.8476 0.9620 -1.4828 -1.1142 -4.0765 2.0051 -0.1886 -3.8830 -0.0332 -1.9892 2.2516 1.1194 4.5889 0.1192 -0.5684 0.2862 1.6833 1.7193 2.6155 1.3837 -1.1547 -2.2644 -3.2020 1.6543 -1.1660 -3.0822 -0.4806 -0.4172 1.5493 -0.5781 2.6823 0.1676 0.9251 -0.1267 -4.4060 1.2340 -2.7502 2.1685 -1.2548 4.8330 -1.1023 1.5369 -2.5669 3.4397 -2.0417 -2.2608 -2.7118 0.4013 -1.6513 1.9859 -0.2675 4.0340 -0.2573 0.5976 0.6185 1.3846 0.4434 1.9809 0.9802 0.1032
5.7142 1.6278 1.6763 -1.5620 3.5637 -2.8761 6.5617 -0.3818 0.8352 -3.0790 4.6808 -1.5989 -3.7349 0.1669 -1.3759 -3.1889 -1.2257 -1.5793 -2.8249 1.1839 -2.0254 -3.3737 -1.9909 -0.3607 -0.6989 2.8007 2.0867 2.7138 -1.7107 -0.3118 -1.5430 -4.6219 1.5047 -0.5393 -4.3172 -0.4820 -1.6400 2.9172 1.1348 4.0278 -1.2546 0.0892 0.4462 1.9365 1.8727 1.6398 -0.9339 -0.0933 -2.5889 -3.6025 1.2214 -1.4217 -3.3847 -0.8666 -0.4080 1.4338 -0.3233 3.0103 0.8059 0.8600 -0.5658 -4.9662 0.7268 -2.6058 2.3671 -1.1049 5.5411 0.3996 1.0652 -2.4622 3.6584 -1.8679 -2.4919 -2.9834 0.0306 -1.4880 2.2133 -0.1285 4.1729 -0.0450 0.6595 0.6207 1.2740 0.7072 1.7687 0.3890 0.5243
3.8841 -1.6893 -0.5562 -0.8140 1.6419 -3.0579 6.0671 -1.1536 0.0864 -2.4440 3.2241 -2.9252 -3.5816 -0.2633 -1.3798 -3.9774 -1.3853 -0.4487 -2.1877 0.2189 -1.0520 -3.5985 -2.6586 -1.0325 -0.7563 3.5971 1.8960 4.9192 2.7929 1.1450 -2.5499 -6.0060 0.1677 -2.5302 -4.5818 1.9051 -1.5985 3.1207 0.9626 5.3184 1.4656 0.7229 0.6481 3.2353 1.8605 3.6166 3.1197 1.1935 -3.0234 -4.9648 -0.7834 -2.9527 -3.5519 1.1586 0.2130 1.9419 -0.1206 2.9749 0.8967 0.5167 -2.3060 -5.8498 1.4305 -2.1037 1.7305 -1.0584 4.8127 -0.8105 -0.0295 -1.8288 2.2882 -2.4330 -3.2119 -3.7398 -0.2592 -1.0979 2.2475 -0.0849 4.3821 0.5484 0.4207 1.1492 2.4464 0.8843 2.5769 2.1391 0.8704
6.6655 -0.4060 1.3349 -3.2057 4.3315 -1.3981 5.3701 1.1267 2.5381 -1.3229 3.5785 -2.4389 -3.9634 0.0263 -1.6989 -3.4533 -1.3710 -1.9599 -2.9365 1.0330 -2.1633 -3.6867 -2.1890 -0.7862 -1.0966 1.3273 2.2161 3.4467 -0.6275 -1.5061 -1.6704 -3.9298 1.7884 -0.2746 -2.9898 0.2999 -1.9878 1.7017 1.2825 4.5528 -0.4280 -0.5932 0.2236 0.8744 1.8202 2.2075 -0.2488 -1.1516 -2.8837 -3.4551 1.0715 -1.2786 -2.5070 -0.4450 -0.3850 1.2583 -0.4729 2.9946 0.5641 0.9749 -0.4375 -3.7146 1.4534 -2.6785 2.0703 -1.0907 5.4922 0.2990 1.5359 -2.2979 3.3800 -1.7291 -2.6559 -2.7308 -0.0393 -1.6204 1.6613 -0.1218 4.3326 0.1284 0.6108 0.6074 0.8516 0.5238 1.9424 0.3849 0.1445
6.3658 2.4308 0.1651 -3.1640 2.6391 -2.5654 7.2051 0.3043 0.6454 -1.5034 1.0860 -2.7354 -4.2953 0.1107 -0.1719 -4.6436 -1.1854 0.5250 -2.8002 0.3169 -0.1150 -4.6982 -2.2681 -0.4415 0.0839 3.9767 1.0948 3.3522 -1.2071 1.5129 -2.3199 -4.8275 -1.6845 -1.7555 -4.2818 0.4212 -1.0441 3.5096 0.5323 4.6696 -0.6809 1.2218 1.2373 3.1084 1.2446 2.2735 -0.4140 1.4015 -3.4853 -3.9021 -1.6993 -2.7817 -3.4287 0.5508 -0.0122 1.3559 0.1674 3.6331 1.4373 0.6687 -1.4833 -5.0074 -0.7114 -2.3977 1.7065 -0.5572 6.1851 1.1125 0.5385 -2.2739 1.7499 -2.0583 -3.6761 -3.1927 -0.5715 -1.1033 2.1384 0.0555 4.8103 0.5964 0.8241 1.2271 1.8387 0.7816 2.3949 0.9779 0.9601
4.7240 -0.6880 -1.4331 -0.7164 2.6733 -3.1104 6.6618 0.3158 -0.5969 -2.6266 3.6051 -2.2959 -2.5536 -0.9211 -1.9130 -1.8241 -2.2361 -1.7647 -1.5798 0.1838 -2.2429 -1.7674 -2.5934 -0.3609 -1.2678 1.8432 2.1815 4.4514 2.6882 2.1238 -3.5254 -4.8166 2.0228 -4.6845 -4.7766 0.0977 -1.9102 1.7152 1.0074 5.2051 1.8520 1.2132 0.1830 1.8522 2.2199 3.1081 2.6755 2.0939 -2.4728 -3.9081 1.4979 -3.8085 -3.9553 -0.4988 0.1977 1.6370 -0.1772 3.1051 1.0255 0.3362 -4.5729 -5.2363 1.3865 -1.9333 1.4416 -1.4784 5.3603 0.2059 -0.5914 -1.8226 2.6831 -2.3264 -2.6398 -3.4910 0.2297 -1.1469 1.6052 -0.2236 4.5587 1.0581 0.3406 0.9196 1.7612 1.0897 2.3779 1.8002 1.1730
4.7138 -0.9146 1.4598 -0.7360 -0.1772 -2.1016 6.8482 -0.0521 1.0587 -2.6470 1.0031 -2.4694 -2.7467 -0.9848 0.9335 -2.4217 -2.4255 1.2516 -1.4602 -0.2571 0.6194 -3.6461 -3.1813 1.4245 -0.4142 4.4090 0.4477 5.2631 3.6496 -0.2698 -5.8008 -5.3113 -0.7085 -3.7200 -5.3188 -1.5562 -1.2475 3.3776 0.2268 5.8039 2.3811 0.1744 1.0205 4.1947 0.4566 3.9346 3.8516 -0.2709 -5.4227 -4.4267 0.4253 -3.2422 -4.5341 -0.5800 0.6263 1.8742 -0.0422 3.5430 1.6543 0.6376 -5.0267 -5.7248 -1.6616 -1.7025 0.9598 -0.2481 5.5522 0.1076 1.0546 -1.7664 0.6138 -1.7144 -4.1375 -4.0298 0.4476 -0.7086 2.0505 -0.0203 4.9760 1.4139 0.6084 1.5556 2.9781 0.2107 3.0095 2.8192 0.2057
6.3800 -1.0669 1.2353 -1.6142 3.6899 -2.5808 4.4308 -1.7578 2.3252 -3.4531 4.2160 -1.3463 -3.5300 -0.1876 -2.3466 -2.6969 -1.4264 -2.1202 -2.6368 1.0083 -2.5861 -3.1571 -2.0888 -0.9142 -1.3598 1.0739 1.9911 4.0129 1.7614 -0.9542 -0.1892 -3.1149 1.0807 -2.0107 -4.2031 1.8210 -2.1999 1.3863 0.9903 4.7869 0.7845 -0.2171 0.0656 0.9781 1.7385 2.6985 1.8936 -0.7122 -0.9522 -2.3914 0.0316 -2.8151 -3.6244 0.9171 -0.3609 1.4657 -0.5784 2.7530 0.1153 0.9144 -0.6634 -3.9660 1.9344 -2.6844 1.9319 -1.3909 5.0165 -0.9834 1.4522 -2.6495 3.3907 -1.7596 -2.2671 -2.6710 -0.0319 -1.6774 1.6132 -0.3447 4.1841 -0.0039 0.6910 0.5755 1.1355 0.4965 2.0141 1.0412 0.2638
6.2852 -1.2734 0.9790 -1.8404 3.6490 -2.7521 4.3154 -1.9827 2.0200 -3.4517 4.2109 -1.2469 -3.4413 -0.2745 -2.3210 -2.5202 -1.4147 -1.9565 -2.6411 0.9814 -2.5771 -3.0759 -2.1130 -0.8147 -1.3388 1.2465 2.0143 4.0141 1.8209 -0.9366 -1.8388 -4.0297 2.1017 -0.0792 -3.0974 1.0600 -2.1965 1.5030 1.0122 4.7543 0.7555 -0.2931 0.0800 1.1202 1.7404 2.7066 1.9811 -0.6743 -2.8132 -3.4739 1.1260 -0.8446 -2.5375 0.1127 -0.3882 1.4825 -0.5939 2.7016 0.0684 0.7948 -0.5540 -3.8634 2.0949 -2.7281 1.9136 -1.3885 4.9266 -1.1578 1.2133 -2.7336 3.3704 -1.7722 -2.2856 -2.7251 0.1406 -1.6997 1.6513 -0.3442 4.1264 -0.0850 0.5487 0.5640 1.1984 0.4807 1.9967 1.0750 0.2318
3.4320 -1.3687 2.2981 -1.9917 -0.0238 1.2632 5.6742 -1.3941 1.6403 -3.4614 1.6925 1.5348 -3.5601 -0.0531 -1.9871 -3.6421 -1.5478 -2.1814 -2.1827 0.3241 -1.4974 -4.0766 -2.1728 -0.9466 -0.0518 4.5284 -0.6110 5.1672 2.0420 -0.7803 -2.7630 -4.6870 1.4372 -1.4173 -4.6324 -0.3613 -1.1409 3.7409 -0.6431 5.3415 0.8794 0.0655 1.2650 3.9411 -0.4458 3.9493 2.5906 -0.9273 -3.6714 -3.6447 0.8898 -2.1534 -3.6943 -0.9729 0.2352 1.7668 -0.4058 2.9767 0.9746 0.5734 -1.6968 -5.1607 0.8739 -2.2531 1.4994 -0.5468 4.4899 -0.8476 1.5764 -2.6439 1.0910 0.8519 -3.3344 -3.1570 -0.3179 -0.9957 2.3001 -0.5206 4.2847 0.3554 0.7118 1.4358 2.6032 -0.3535 2.7844 2.0545 -0.2176
4.0684 -0.9453 3.2966 -2.1588 1.9002 -3.3029 5.5361 -1.8891 1.7405 -3.2210 3.8205 -2.6949 -3.9972 0.2210 0.2237 -3.8585 -1.2745 0.3740 -3.4866 0.6623 -1.1306 -2.6681 -1.5729 1.1493 -0.5387 3.3355 1.5127 3.3605 -0.3029 -1.5197 0.2955 -3.7504 0.6895 -0.4308 -3.0796 -1.3287 -1.6419 3.1827 0.7605 4.0898 -0.8610 -0.4015 0.6340 2.5210 1.2600 2.2922 0.4802 -1.2988 -0.7826 -3.0237 1.4107 -1.4446 -2.3750 -0.8077 -0.5826 1.4069 -0.4956 2.4973 0.1983 1.0880 0.4779 -3.7959 -0.5921 -2.9328 2.0691 -1.0615 4.4693 -1.1791 1.9935 -2.8044 2.7034 -2.4217 -1.6465 -2.3482 0.6309 -1.6580 2.1918 -0.3014 3.6807 -0.6142 0.8563 0.6284 1.5587 0.3108 1.8230 0.7602 0.0602
6.6425 0.0433 1.1756 -1.3253 3.6127 -2.2963 5.0974 0.9787 2.6606 -3.0773 4.4495 -1.1077 -3.9714 0.1606 -2.0614 -3.3301 -1.1976 -1.9068 -2.9092 1.1998 -2.3381 -3.3784 -1.5942 -0.5127 -1.3409 0.8488 2.1411 3.3489 -0.9194 -1.4156 -1.1247 -3.2445 1.9235 -0.2910 -3.5420 -0.1414 -2.1582 1.3864 1.2195 4.4461 -0.5790 -0.5328 -0.0102 0.4117 1.7634 2.0901 -0.5906 -1.0798 -2.3021 -2.4854 1.4246 -1.2914 -2.8647 -0.7217 -0.4498 1.1699 -0.4792 2.8463 0.4798 0.9441 -0.1688 -3.7493 1.2095 -2.6996 2.0708 -1.1191 5.3487 0.3866 1.5242 -2.4092 3.4990 -1.4905 -2.3482 -2.2908 0.0940 -1.6983 1.5480 -0.1491 4.2048 0.0863 0.6109 0.4567 0.5821 0.5064 1.8026 0.1436 0.1548
6.0948 2.4589 2.7931 -1.6862 -1.0257 0.7530 7.5720 1.2612 1.4349 -3.2018 0.3532 1.7463 -3.4979 0.1373 -2.1069 -3.6265 -1.2931 -2.5754 -2.0884 0.3944 -1.6275 -4.6249 -1.9656 -1.7681 0.0565 3.9357 0.8105 4.5147 0.2660 -1.3070 -4.8699 -5.0837 0.2123 -2.6992 -4.5458 -0.0109 -1.0186 3.1839 0.5193 5.5477 0.5779 -0.3426 1.3912 3.4034 0.6163 3.2833 0.7811 -1.1601 -5.3250 -3.9199 -0.5923 -2.9701 -3.4731 -0.7675 0.4009 1.3310 -0.1106 3.9193 1.8867 0.8858 -3.6468 -5.3921 0.5076 -2.0941 1.0742 -0.2744 6.3640 1.6979 1.6707 -2.4033 0.1197 0.8497 -4.3490 -3.1265 -1.0686 -0.8429 1.8288 0.0251 5.2677 1.3694 0.7083 1.5886 2.1349 0.1939 2.9438 1.6296 -0.0148
5.4667 -1.9559 2.0644 -2.5580 2.3339 -3.2208 4.2658 -0.3892 3.3168 -3.6122 4.1091 -2.2616 -3.8121 0.2566 0.3467 -3.6054 -1.2380 0.3371 -3.4630 0.8288 -1.0081 -2.3558 -1.5569 1.0007 -0.1018 3.8031 0.9880 2.9349 -1.0352 -1.2776 0.6540 -3.6021 0.2961 -0.8730 -3.9971 -1.3039 -1.3120 3.6059 0.4380 3.7572 -1.3487 -0.1273 0.9322 2.7961 0.8448 1.9932 -0.0817 -1.1885 -0.2272 -2.6418 1.0126 -1.7684 -3.1642 -0.7556 -0.6193 1.4536 -0.4152 2.5084 0.2974 1.1367 0.3802 -4.2376 -0.7993 -2.9535 2.2486 -0.8767 4.4562 -1.0189 2.1890 -3.0873 3.0072 -2.1708 -1.4331 -2.4315 0.4541 -1.5776 2.3933 -0.3194 3.5599 -0.7019 1.0353 0.6975 1.6332 0.1973 1.7534 0.6339 0.0672
6.7124 -0.0661 -0.3496 -2.8343 3.6884 -2.0611 4.9534 0.4250 -1.8114 -1.1538 2.9993 -3.4325 -3.2873 -0.4583 -2.0920 -4.1929 -1.3398 -1.2648 -3.2623 0.9340 -1.5077 -3.7455 -2.7166 -1.3545 -1.1492 2.6923 1.8633 3.8871 0.1283 2.8751 -1.4427 -4.9288 0.5280 -2.0166 -3.2000 1.8443 -1.7985 2.4822 0.7069 4.8072 0.0121 1.7637 0.1997 2.1930 2.0356 2.6369 0.5748 2.6669 -2.2869 -4.4541 -0.6007 -2.8252 -2.6685 0.9168 0.0900 1.2564 -0.1812 3.0727 0.9045 0.3215 -1.2875 -4.3507 1.6770 -1.8856 1.5450 -1.6509 5.3868 0.2460 -0.5931 -1.9002 2.8015 -2.4834 -2.9495 -3.3029 -0.3852 -1.1521 1.7451 -0.3679 4.4169 0.3890 0.5335 0.8272 1.4842 1.0700 2.1800 0.9847 1.3335
6.5444 -0.6642 1.1218 -2.0402 0.5707 1.3007 4.5386 -1.2958 0.0958 -3.5969 2.0815 0.6128 -2.6731 -0.6789 -2.0059 -2.6083 -2.1628 -1.7332 -1.4901 0.0119 -1.3677 -3.4894 -2.4825 -0.6253 0.1995 4.5051 -1.4411 4.7793 3.1726 1.8771 -4.4624 -5.5053 1.2903 -3.3624 -6.1459 -0.5604 -0.8213 3.6302 -1.4651 5.3210 1.8460 1.6689 1.4581 4.1380 -0.8163 3.6212 3.5259 1.2938 -4.3293 -4.0595 0.9646 -3.1770 -4.8851 -0.9742 0.4901 2.0098 -0.2406 3.4397 1.3787 0.2135 -4.0157 -6.5012 0.5923 -1.8518 1.4125 -0.9164 5.2626 -0.3816 0.6826 -2.5960 1.4124 0.3952 -3.6726 -3.7777 -0.1758 -0.6745 2.3273 -0.8371 4.6754 0.9788 0.8694 1.6267 2.9329 -0.2263 2.9044 2.6060 0.4065
6.3221 2.8569 0.8994 -2.4211 2.4125 1.5683 7.0317 1.0588 2.2115 -3.2052 3.8811 0.0158 -4.2302 0.1324 -0.5753 -4.4392 -1.2088 -1.2388 -2.7578 0.3626 -0.3237 -4.5679 -2.2498 -0.2348 0.8146 2.5950 -2.5890 3.3276 -0.9357 1.7782 -2.7271 -5.3379 0.6805 -2.0970 -4.7095 -1.3822 -0.4813 2.5043 -2.2430 4.5780 -0.2277 1.9558 1.8372 2.0203 -1.7353 2.3834 -0.4356 0.9644 -3.6850 -4.2074 0.8205 -2.9286 -3.6585 -1.3931 0.1073 1.3538 -0.2005 3.7406 1.4954 0.4736 -1.9597 -5.5844 -0.3341 -2.3197 1.7578 -0.7162 6.1009 1.6290 1.4945 -2.7046 2.8017 0.3014 -3.7484 -3.3665 -0.2282 -0.8563 1.8460 -1.0029 4.7864 0.9379 1.3176 1.5259 1.4337 -0.5580 2.5732 0.8424 0.2733
4.0742 -2.1158 2.3875 -1.6913 3.4360 -2.7883 6.0338 -1.4475 1.3025 -3.4649 4.1771 -1.5696 -3.8151 -0.2586 -2.2019 -3.0508 -1.5355 -1.9456 -2.8510 0.8570 -2.5291 -3.0792 -1.8204 -0.5247 -1.3896 1.3096 2.0127 3.9424 1.4071 -1.0296 0.2942 -2.9629 0.5607 -1.1565 -3.1305 2.2680 -2.2521 1.5531 1.0114 4.6428 0.3795 -0.2863 0.0133 1.0877 1.7217 2.6427 1.6448 -0.7853 -0.7395 -2.4390 -0.3703 -2.1826 -2.6741 1.5361 -0.4845 1.3196 -0.6236 2.5638 -0.1286 0.8450 0.1249 -3.2884 1.8031 -2.8093 1.8625 -1.4004 4.7420 -1.3397 1.4580 -2.7090 3.2764 -1.9078 -1.9748 -2.3064 0.1473 -1.7788 1.5818 -0.3621 3.9824 -0.3564 0.6258 0.4757 1.0622 0.4516 1.8970 0.8496 0.1934
3.0212 -2.2772 -1.1390 -1.0729 2.3294 -3.3052 5.2187 -2.0684 -0.3719 -2.5727 3.9426 -2.7343 -3.8357 -0.1162 -1.2532 -3.6813 -1.6141 -1.1540 -2.5886 0.4948 -1.8469 -3.3666 -1.9772 0.2148 -1.2434 3.0210 1.9715 4.3280 1.5140 1.6964 -0.5712 -3.6466 1.9867 -0.3493 -4.0176 -0.2181 -2.0259 2.8338 0.8946 4.6309 0.2938 0.9778 0.1059 2.4864 1.9907 3.0782 2.0075 1.6873 -1.8198 -2.8574 1.8105 -1.4650 -3.3382 -0.5173 -0.2477 1.6443 -0.2340 2.3005 0.1714 0.3343 0.1417 -4.1903 1.0515 -2.4450 1.9345 -1.4018 3.9965 -1.6106 -0.4207 -2.0614 2.8488 -2.5366 -2.2344 -2.7035 0.5398 -1.5082 2.1150 -0.2570 3.6566 -0.3524 0.3132 0.6187 1.8176 0.9332 1.9920 1.3151 0.9877
6.0852 -0.6605 -0.6850 -2.1489 3.8819 -2.8632 4.5619 0.6720 -1.8548 -0.4322 2.3886 -2.9892 -3.9299 0.1765 -1.2659 -3.9625 -1.3320 -1.2640 -2.6685 0.6540 -1.9471 -3.6442 -1.8246 0.0630 -1.3457 2.6661 2.1306 3.3208 -0.7199 2.5985 -0.7635 -3.5733 1.6065 -0.8222 -4.0741 -0.5832 -2.0231 2.6616 0.9693 4.2423 -0.6719 1.4819 -0.0603 1.9993 2.2244 2.1282 -0.1072 2.5134 -1.9740 -2.7124 1.5261 -1.9265 -3.3443 -0.7930 -0.3133 1.2974 -0.0613 2.6349 0.6953 0.2966 -0.1947 -4.2069 0.6298 -2.2765 2.0245 -1.4393 4.8795 0.0132 -0.7733 -1.4952 2.7492 -2.5052 -2.5217 -2.5972 0.3029 -1.4772 1.9624 -0.1810 3.9120 0.0033 0.3670 0.4639 1.3264 1.1758 1.7513 0.6527 1.3198
6.5425 0.9567 -0.4527 -0.4283 2.6455 -2.7675 4.7417 2.0253 -1.4940 -1.7963 4.2441 -1.9003 -3.8729 0.2396 -1.9728 -3.8163 -1.2599 -1.8097 -2.4941 0.7852 -2.2654 -3.7815 -1.5877 -0.3973 -1.5936 1.1648 2.2841 3.6947 -1.1802 1.9498 -1.7953 -3.7690 1.8440 -0.9305 -3.8903 -0.2263 -2.1941 1.5358 1.1402 4.6254 -0.4963 1.0756 -0.1969 0.7691 2.2761 2.4019 -0.8150 1.9741 -2.8676 -2.8262 1.4286 -1.8413 -3.0483 -0.7334 -0.1757 1.0721 -0.1085 2.8091 0.9425 0.3739 -0.8744 -4.2787 1.0885 -2.1851 1.9313 -1.3286 5.1870 1.2008 -0.5848 -1.4765 3.0692 -2.0188 -2.8635 -2.4789 0.1289 -1.4501 1.5029 -0.1070 4.2008 0.5269 0.3133 0.5156 0.7168 1.1287 1.9152 0.3019 1.1614
5.2811 -1.6250 0.0341 -3.4639 3.9033 -1.7696 6.4346 -0.6999 1.8441 -3.0952 4.1316 0.4640 -3.7815 -0.2104 -0.7786 -2.9740 -1.2307 -1.5459 -3.6130 1.1523 -1.4042 -1.9182 -1.7327 -0.6891 0.4246 1.7453 -2.7307 3.2331 1.9358 2.7174 -1.1797 -4.7844 1.2728 -3.1596 -5.0568 0.2456 -0.8584 1.9031 -2.3668 4.2822 0.9700 2.4626 1.4453 1.5683 -1.7183 2.2520 2.1163 1.8169 -0.9768 -3.4287 0.6976 -3.1022 -3.8535 -0.3421 -0.2767 1.6416 -0.0328 3.1879 0.4286 0.3717 -2.1965 -5.5640 1.0812 -2.6647 2.0015 -0.5850 5.3805 -0.7189 1.0735 -3.0856 3.4475 -0.5505 -1.9607 -2.9855 -0.1055 -1.2275 1.8654 -0.9604 4.2745 0.2563 1.3225 1.1348 1.4914 -0.4049 2.2032 1.3322 0.5805
5.1908 -0.3664 -1.0661 -0.3206 -0.4830 -1.8341 7.0389 0.2234 0.2362 -2.0534 0.6396 -2.7918 -3.0178 -0.8460 0.7246 -2.8392 -2.2314 1.3012 -1.6619 -0.1863 0.6246 -4.1024 -2.9423 1.2815 -0.3915 4.4038 0.0518 4.8964 3.3416 2.1428 -5.7987 -5.3247 -0.9941 -3.5806 -5.4731 -1.3232 -1.2039 3.3596 -0.1869 5.6316 2.2844 1.4788 1.0062 4.1796 0.3682 3.6042 3.5542 1.8411 -5.6532 -4.2959 0.0701 -3.3061 -4.5662 -0.3749 0.6067 1.8108 0.2207 3.6397 1.7933 0.1951 -4.8445 -5.8749 -1.6763 -1.6447 0.9038 -0.4256 5.7960 0.4267 -0.1088 -1.3831 0.3584 -1.8077 -4.3915 -3.9135 0.3389 -0.6842 2.0040 -0.1119 5.0261 1.5305 0.5437 1.5163 2.9320 0.4660 2.9244 2.7581 0.8159
6.3822 -0.4164 0.6856 -2.3442 3.4630 0.2514 7.0938 0.9707 2.4275 -3.0810 3.5133 -1.9004 -3.8638 -0.0067 -0.1535 -3.9013 -1.3778 0.4778 -2.5386 0.6604 0.1356 -3.8576 -2.3801 -0.5703 1.1218 1.0055 -2.9212 3.5011 3.2021 2.3232 -3.4093 -6.0552 -0.7785 -4.0150 -5.5177 1.3168 -0.1869 1.0708 -2.6216 4.7165 2.4175 2.3729 2.1162 1.3006 -1.9062 2.5888 2.9628 1.3666 -3.4394 -4.6392 -1.2338 -4.0893 -4.2091 1.0380 0.3262 1.6651 -0.3357 3.9136 1.1685 0.4546 -3.6696 -6.4907 0.4136 -2.0808 1.4867 -1.0477 6.1861 0.6483 1.5455 -2.5567 2.9159 -0.9702 -3.7697 -3.7325 -0.2960 -0.6073 1.4319 -1.2783 4.9223 1.4437 1.4681 1.7613 1.5958 -0.6351 2.7806 1.9030 0.3714
7.0895 1.1874 2.2200 -2.4811 2.1481 1.8827 6.2841 2.9359 0.8912 -3.2674 3.8536 0.5969 -3.1348 -0.2264 -1.6064 -2.4386 -1.5639 -1.7215 -2.7807 0.4313 -0.2916 -3.4306 -2.6161 -1.8552 0.6487 3.1163 -2.2924 3.4411 -0.9218 1.4219 -4.1446 -5.8815 -0.2442 -2.8050 -4.6861 1.1062 -0.6288 2.9274 -1.9199 4.6768 -0.2031 1.6507 1.7218 2.4593 -1.5713 2.4479 -0.3427 0.7272 -4.1653 -4.8244 -1.2915 -2.7426 -3.6559 0.2513 0.0748 1.4985 -0.0996 3.7178 1.6908 0.4787 -3.5152 -5.8395 0.8875 -2.3791 1.8809 -0.4791 6.1053 1.7629 1.4362 -2.7689 2.7405 0.6977 -3.4507 -3.7176 -1.0161 -0.9317 2.0759 -0.7827 4.8124 1.0549 1.1946 1.4747 1.6892 -0.4877 2.5703 1.0259 0.2165
3.4221 0.5139 3.5851 -3.4625 3.5530 -1.6478 5.6422 0.0417 3.0249 -1.9312 4.5435 -0.2875 -3.5688 0.5423 1.3544 -4.0483 -0.8490 1.0174 -3.6368 1.4188 0.1262 -3.1260 -1.8193 1.5742 -0.6872 0.0081 -2.6621 4.8275 0.4857 -1.1073 -0.6569 -4.2726 0.3030 -1.8277 -3.4652 -1.4366 -1.6200 0.7236 -2.0132 5.1107 0.4032 0.3098 0.6640 -0.0586 -2.1437 3.5558 0.5647 -1.5338 -1.4132 -3.4602 1.2926 -2.5920 -2.6899 -0.6550 -0.0063 1.3824 -0.3330 2.7197 0.4123 0.7210 -0.8229 -4.2814 -0.9819 -2.3396 2.1766 -0.0620 4.4184 0.3010 2.6507 -2.5401 3.5477 -0.6551 -2.3655 -2.6596 0.7802 -1.2722 1.4343 -0.7933 4.0965 0.3638 1.1923 1.0311 0.6070 -1.0254 2.4292 0.5323 -0.5940
6.4797 0.3014 -0.3010 -2.2934 1.4726 -3.5141 7.2614 1.5777 1.4925 -1.9311 3.5626 -2.6886 -3.7874 0.8515 0.5269 -4.4559 -0.4741 0.7975 -3.4709 0.9770 -0.9457 -3.4772 -1.4198 1.3002 0.2172 -1.1947 -1.0082 3.3312 2.5530 2.7253 -2.1229 -4.7063 0.2487 -3.9975 -4.2940 -0.9188 -0.8562 -0.4469 -1.3096 4.6742 2.2319 2.2882 1.3110 -0.6173 -0.2542 2.2712 2.0572 2.0646 -2.2184 -3.4311 1.0085 -4.2077 -3.1219 -0.3040 0.1083 1.4705 -0.1917 3.7068 0.9496 0.4764 -2.9372 -5.1275 -0.6668 -2.1670 1.7190 -1.1518 6.2586 1.1073 0.8004 -2.1122 2.3657 -2.5107 -3.2659 -2.6468 0.6958 -0.9258 0.9386 -0.8730 4.8600 1.4480 1.2111 1.3052 0.6804 0.1254 2.4417 1.2163 0.8769
6.9251 0.9533 -0.5037 -2.4514 1.9839 1.2592 7.5733 1.1942 1.7306 -3.4335 3.2101 -0.3893 -3.2152 -0.6685 -1.2186 -3.7748 -1.6670 -0.2297 -1.9797 -0.0183 -0.6355 -4.4970 -2.7105 -0.9350 1.0738 3.2703 -2.4042 3.5669 1.6787 2.9896 -5.1281 -6.3385 -0.4724 -3.1801 -5.8128 0.5163 -0.1631 2.7688 -2.2442 4.9203 1.4154 2.5521 2.1001 3.0103 -1.4147 2.6150 1.9660 2.0868 -5.3856 -4.9334 -0.8883 -3.2849 -4.5144 0.1982 0.4991 1.6904 -0.1854 4.1777 1.7354 0.2652 -4.1018 -6.7748 0.1869 -1.8803 1.4538 -0.9860 6.6311 1.1951 0.8256 -2.6749 2.3175 -0.0362 -4.4448 -4.0369 -0.5369 -0.4726 1.9518 -1.0821 5.2213 1.4625 1.2419 1.8577 2.2253 -0.3412 2.9065 1.9923 0.6510
2.7933 -1.6457 2.8064 -3.6748 3.9390 -1.1067 5.1194 -1.4291 2.7227 -2.7363 4.4617 0.8997 -3.4308 -0.0199 0.5144 -3.7963 -1.2259 -0.3190 -3.5911 1.2458 -0.2939 -2.5876 -1.8184 -0.8575 -0.2091 1.9610 -2.9597 4.8867 1.5018 -0.3202 -0.3831 -4.7242 -0.2214 -1.8223 -4.5333 1.4942 -1.3102 2.1483 -2.2141 4.9602 0.5174 0.7381 1.0445 1.6112 -2.3235 3.6972 1.8264 -0.8537 -0.9645 -3.5609 -0.9407 -2.4393 -3.4720 0.9549 -0.0606 1.7332 -0.1826 2.5578 0.2329 0.5519 -0.7664 -5.1977 0.9219 -2.4829 2.2232 0.0326 3.9413 -1.0921 2.2704 -2.9608 3.6527 0.0098 -1.9958 -2.9516 -0.3278 -1.2372 2.0368 -0.7660 3.8398 -0.0962 1.1599 1.1501 1.4976 -0.9802 2.4589 1.1781 -0.4098
6.7129 -0.1274 2.3218 -3.9461 1.2775 1.4851 5.6454 1.9472 2.1810 -3.5306 3.2588 0.4397 -4.5643 0.1767 -1.7988 -4.0829 -1.2036 -2.1732 -3.4155 1.1601 -1.8108 -4.0169 -2.0255 -0.9792 0.3395 3.2626 -1.3155 3.3728 -1.8458 0.2482 -1.2881 -3.2478 1.2100 -0.5014 -3.0463 -0.8853 -0.9348 2.8547 -1.2100 4.4805 -1.2438 0.9601 1.4138 2.3956 -0.8774 2.3502 -1.0829 -0.1736 -2.6500 -2.7868 0.8298 -1.6790 -2.6237 -1.3640 -0.2362 0.7759 -0.1886 3.3405 0.8886 0.7884 -0.2629 -3.3678 0.4272 -2.6806 1.1669 -0.4838 5.6480 0.6659 1.9304 -3.4051 2.0451 0.5062 -2.8093 -2.4623 -0.4658 -1.2451 1.5639 -0.6132 4.4750 0.0774 1.2111 1.1709 1.1935 -0.3077 2.2994 0.3532 0.1078
3.8752 -2.2349 -0.5642 -4.2152 2.5371 -0.5134 5.7246 -1.9795 0.8418 -3.7873 1.0219 1.1304 -3.4878 -0.3491 -2.4914 -2.5597 -1.5386 -2.5517 -2.7043 0.9234 -2.2643 -3.0961 -2.5905 -1.7113 -0.0620 4.0879 -0.6939 4.4696 1.8759 2.0516 -2.2617 -4.2482 1.4928 -0.6534 -2.7506 1.0228 -1.1517 3.3294 -0.8950 4.9065 0.5656 1.6183 1.1557 3.4819 -0.1975 3.3073 2.3772 1.6019 -3.0225 -3.9406 0.2534 -1.2319 -2.3831 -0.1290 0.0079 1.3647 -0.0867 2.9229 0.4316 0.2311 -1.1547 -3.6977 1.8801 -2.3469 1.0930 -0.8039 4.6206 -1.4980 0.3371 -3.5062 1.5312 0.0541 -2.4861 -2.9934 -0.5372 -1.1236 1.9109 -0.5737 4.1614 -0.1347 0.7444 1.2213 2.1673 0.1110 2.4779 1.6399 0.6426
2.6265 -0.8166 3.0748 -1.6209 4.1084 1.1797 4.9539 -0.8356 2.8634 -2.9652 4.8333 -0.5075 -3.4944 0.2944 0.3873 -2.6810 -0.9061 0.8064 -2.8129 1.5598 0.8608 -3.0986 -2.0669 0.0436 -0.4430 1.5246 -3.2765 4.7890 1.2169 -0.8367 -2.0662 -5.6172 -0.2546 -0.5213 -4.5174 0.9500 -1.4706 1.9344 -2.5137 4.8413 0.5369 0.4410 0.8349 1.2162 -2.6647 3.6021 1.4890 -1.4042 -2.9076 -4.4032 -0.4344 -1.1774 -3.3522 0.8602 -0.0914 1.8286 -0.5285 2.4247 0.4104 0.4039 -0.9461 -5.6967 0.3919 -2.5034 2.4741 -0.3062 3.7831 -0.5253 2.3755 -2.4126 3.9232 0.0952 -2.4385 -3.2803 0.1400 -1.2917 2.0846 -1.0803 3.7028 0.1508 1.0445 1.0356 1.3638 -1.3365 2.3487 1.0682 -0.7746
4.9813 -2.1441 2.4677 -4.0588 3.1372 0.0988 3.2275 -0.8686 3.3472 -3.4485 1.8685 1.8858 -4.4750 -0.2265 -1.2123 -3.8796 -1.5641 -1.5769 -3.5043 0.8894 -1.5288 -3.4839 -2.2558 -0.3645 -0.0079 3.6121 -1.5385 4.6459 0.2190 -1.1116 -0.2724 -2.9964 1.3294 0.1166 -2.7126 -0.8653 -1.2147 3.0909 -1.2635 4.8085 -0.4628 0.1555 1.1925 2.8630 -1.2238 3.5009 0.8689 -1.3840 -1.7346 -2.7676 1.1828 -1.1778 -2.5029 -1.1408 -0.1948 1.0827 -0.3787 2.5789 0.2818 0.7626 0.6165 -2.9643 0.3874 -2.6729 1.2437 -0.3140 4.0030 -1.1736 2.3423 -3.4147 2.0984 0.6845 -2.1557 -2.4997 -0.0663 -1.3191 1.7809 -0.6387 3.8067 -0.4468 1.0523 1.1389 1.6293 -0.6723 2.3978 0.9197 -0.4162
7.2304 2.6534 -1.0202 -0.2010 1.8148 -2.6515 5.1939 2.4887 -2.1589 -2.3530 2.4885 -2.3460 -2.2925 -1.3626 -1.6810 -2.2765 -2.7134 -1.0033 -1.0598 -0.5776 -1.2957 -3.3502 -3.5278 -1.5394 -0.6073 2.3676 2.4565 5.1297 1.5913 2.5738 -6.1493 -5.5980 -0.2664 -5.1431 -4.6040 1.4791 -1.2935 1.8709 1.4127 5.8222 1.8752 1.3336 0.8429 2.3890 2.4293 3.7861 1.5859 2.6073 -5.2027 -5.0067 -1.2499 -4.2240 -4.0098 0.7046 0.7666 1.3184 0.2751 3.6674 2.2057 0.2801 -6.1489 -5.4148 1.0162 -1.4187 0.8283 -0.8605 5.8629 2.4465 -1.0386 -1.3985 1.7982 -2.0160 -4.2546 -4.2014 -0.7361 -0.5802 1.3321 0.2669 5.1187 2.1727 0.2269 1.5364 1.8818 1.3860 2.9966 1.9070 1.4151
5.8102 -0.5846 -0.6667 -4.3826 2.0863 0.6890 6.4495 -1.1194 1.5159 -3.6678 3.5610 -0.8931 -4.3325 -0.2564 -2.0264 -3.7110 -1.6299 -2.0908 -3.2699 0.8066 -2.1858 -3.5646 -2.1534 -0.7454 0.4509 3.0156 -1.6855 2.5570 -0.3551 2.9987 -0.7411 -2.6360 1.6058 0.0457 -2.7316 -0.4969 -0.8423 2.6568 -1.7090 3.8600 -0.6920 2.4644 1.3744 2.3308 -0.8052 1.6609 0.2900 2.2329 -2.1407 -2.4044 1.1594 -1.1676 -2.5464 -1.0349 -0.4514 0.9557 -0.0370 3.1822 0.3076 0.3644 0.3013 -2.7812 0.8501 -2.7879 1.2864 -0.8317 5.5336 -0.7039 0.6824 -3.6269 2.4548 -0.3755 -2.3209 -2.3500 -0.1726 -1.3291 1.6098 -0.8238 4.1739 -0.3539 1.2010 0.9789 1.3004 -0.0244 1.9580 0.6365 0.8407
5.3510 0.3476 3.2229 -1.6348 3.8313 1.0762 3.7838 2.0491 2.8786 -3.0598 4.3295 -0.6275 -4.0446 0.4520 0.9696 -3.7420 -1.0037 1.2245 -2.7837 1.2701 1.1025 -3.5098 -1.6664 -0.0436 -0.4097 1.1281 -3.1411 4.0912 -1.3644 -0.5117 -1.1719 -4.1885 -1.4160 -0.5211 -3.6700 0.6712 -1.4456 1.5394 -2.3900 4.5537 -0.7140 0.6976 0.8166 0.6866 -2.5047 2.9540 -0.9580 -1.1012 -2.3347 -3.2631 -1.3706 -1.5268 -2.8017 0.8460 -0.2028 1.0975 -0.3638 2.6361 0.7556 0.5649 -0.3070 -4.3952 -0.4739 -2.5234 2.0219 -0.1839 4.3355 0.9322 2.4878 -2.4508 3.5080 0.0439 -2.4868 -2.5795 -0.2222 -1.3328 1.5449 -0.9410 3.8443 0.2976 1.2279 0.9399 0.6479 -1.1594 2.1821 0.1650 -0.5631
6.9980 2.2851 -0.4807 -1.8275 3.0137 -0.7381 7.3264 3.4505 1.5177 -2.2746 2.1546 -2.7998 -3.8452 -0.0129 0.1165 -4.2010 -1.0199 1.1844 -2.4337 0.4789 0.3305 -5.2175 -1.9173 0.6711 1.5354 -1.0048 -1.7780 3.4522 2.4877 2.9098 -5.4056 -5.3551 -0.6958 -3.2423 -4.7713 -0.5152 0.2309 -0.6822 -1.7878 4.7831 2.7989 2.4341 2.4531 -0.3006 -0.9030 2.6026 1.8064 2.1240 -5.8835 -4.0632 -0.1369 -3.5345 -3.5698 0.0010 0.6086 1.0488 -0.1424 4.2134 1.7373 0.3308 -4.1739 -5.7087 -0.8859 -1.7220 0.6529 -0.9931 6.5472 2.7449 0.7428 -1.9787 1.9977 -1.6230 -4.9218 -3.1848 0.2001 -0.2589 0.3779 -0.9238 5.1555 2.4337 1.1941 2.0368 0.7189 -0.1193 2.9772 1.4027 0.7659
7.4701 3.5714 0.9094 -1.1946 1.4647 -2.6728 7.0461 1.3426 0.3429 -1.6885 -0.7105 -3.1282 -3.9133 0.8897 -0.4496 -4.4986 -0.2154 0.3945 -2.4426 1.0739 -0.1558 -5.1344 -1.1781 -0.4835 1.3403 -1.7268 0.7013 3.2538 4.0719 1.5415 -5.0820 -4.8445 -1.0038 -3.8479 -4.3580 0.8102 0.1381 -1.4961 0.1460 4.6726 3.8773 1.3286 2.2489 -0.6239 0.9550 2.3992 3.0548 1.3406 -5.4350 -3.4205 -1.2447 -4.0906 -3.0439 0.7122 0.6189 0.8691 0.0004 4.1911 1.5978 0.6561 -4.3343 -5.3077 -0.0526 -1.5940 0.0160 -0.8295 6.6000 2.5139 0.7090 -1.4982 0.1913 -2.3233 -4.9120 -2.5381 -0.3741 -0.2421 -0.1426 -0.2215 5.1277 2.6842 0.9065 1.9366 0.6444 0.6050 2.8651 1.7431 0.8804
8.0265 2.5206 1.0601 -2.2416 -0.6187 -2.0681 6.8188 2.6496 -0.9372 -1.0711 -2.1333 -0.8364 -3.6228 -0.1369 1.3439 -4.7434 -0.8601 0.6346 -2.8358 0.6905 0.3538 -4.6189 -2.2830 0.8827 0.4116 2.9043 -1.4952 4.3213 1.7591 3.0960 -4.6435 -5.4323 -1.0738 -5.2279 -3.7405 -2.4323 -0.5673 2.0231 -1.2318 5.5613 1.9956 2.3853 1.6381 2.8723 -0.7252 3.1543 1.7533 2.4296 -4.4834 -4.5353 0.1021 -5.1300 -2.8254 -1.4574 0.7712 0.9815 0.4934 4.2821 2.1329 0.3340 -4.9820 -5.0816 -2.2743 -1.4888 0.0560 0.0842 6.8375 2.4629 0.3549 -1.5568 -1.0185 -0.9693 -4.7266 -3.2304 -0.1211 -0.3878 1.0215 -0.1922 5.5448 2.1863 1.0540 1.8531 1.9368 0.2268 3.1073 1.9494 0.9790
7.2738 2.0804 -0.5931 -1.8712 0.9651 1.5866 7.9034 2.4806 1.6217 -3.2264 1.9712 0.0575 -2.3738 -1.7424 -0.8588 -2.6314 -2.8717 0.1108 -1.2089 -0.9099 -0.3812 -4.0505 -2.9310 0.3995 1.0560 2.6839 -2.5243 3.8840 2.4995 2.9350 -6.9432 -5.1269 -0.3235 -5.2197 -5.7684 -1.6165 -0.0475 1.9717 -2.2369 5.2583 2.4529 2.4843 2.1257 2.7952 -1.5514 2.8829 2.4385 2.0416 -6.1517 -4.0551 0.3343 -4.3959 -4.8418 -1.1060 0.8593 1.3711 -0.0774 4.4411 2.2323 0.2128 -6.5293 -5.9406 -1.2427 -1.4281 0.5509 -0.7114 6.9605 2.3018 0.7355 -2.2768 1.2469 0.3237 -4.8773 -3.9321 -0.0799 -0.1601 1.2972 -0.9545 5.5304 2.3379 1.1718 2.0676 2.1500 -0.3650 3.1489 2.2928 0.6077
6.0246 3.2752 3.0952 -2.8920 -0.2051 0.8457 7.2472 4.4062 1.4567 -2.6346 1.8408 -0.1174 -2.4977 -1.0818 -2.6169 -3.5287 -2.1789 -2.7216 -1.6112 -1.3019 -1.4121 -4.7000 -1.8255 -1.9413 1.3889 -0.9942 1.7194 4.9758 2.6613 -1.6637 -6.5586 -3.2399 0.9383 -5.1130 -4.7863 0.1858 0.2364 -0.9418 1.0323 5.7665 3.2347 -0.5942 2.4915 -0.1322 1.3462 3.9210 1.8798 -1.3765 -6.1476 -2.2409 -0.0845 -4.6562 -3.9884 -0.7892 1.1056 0.8190 -0.3824 4.2607 2.1927 0.9896 -6.0830 -4.4354 1.0907 -1.2040 0.0279 -0.8157 6.2758 3.5925 1.7731 -2.3011 0.6692 -0.0046 -5.1842 -2.6420 -0.9339 0.0841 -0.0013 -0.0668 5.4300 3.0041 0.6876 2.3778 0.7756 0.3508 3.5261 1.6168 0.0096
7.9390 3.2508 0.9352 -1.3358 -2.3879 0.4410 6.7380 1.9082 2.4248 -0.3509 -2.4004 -1.6110 -3.3091 0.0075 -1.7890 -4.7661 -0.3013 -1.5353 -2.5602 0.0484 -0.4778 -5.0683 -1.6219 -2.0519 0.3224 1.1424 2.4900 4.3322 3.6978 -1.3584 -5.6860 -5.0249 -0.7226 -5.1343 -3.6772 0.9885 -0.4942 0.4905 1.6466 5.5399 3.5193 -0.5782 1.5339 1.7571 1.9887 3.1837 3.1236 -0.9625 -5.5931 -3.9268 -1.7211 -5.0241 -2.5996 0.1992 0.9879 0.9370 -0.2131 4.2795 2.1039 0.9283 -5.4622 -4.9357 0.5504 -1.1040 -0.3057 -0.6850 6.7703 2.6266 1.3350 -0.8753 -1.7944 -0.6866 -5.2490 -2.7218 -1.2315 -0.1588 0.3898 0.2345 5.5158 2.7596 0.5313 1.8984 1.6477 0.6917 3.1307 2.2876 0.2384
6.3315 0.0064 0.3605 -2.8192 -0.2407 -1.3520 7.7826 1.8373 0.4265 -1.1278 -0.0668 -2.8642 -0.9879 -3.0932 -0.3029 -2.1667 -3.9854 0.0066 -1.1787 -1.7285 0.3195 -3.1708 -3.8235 -1.0275 -0.6318 2.3907 1.6292 4.5596 4.5786 0.5593 -6.8240 -3.2297 -1.1798 -6.0805 -2.6170 0.8502 -1.0457 1.2959 0.9709 5.6585 3.6386 0.4921 0.7469 2.8185 1.5205 3.2953 4.1280 0.6128 -5.4748 -3.6596 -1.6335 -4.8154 -2.9589 0.5693 1.1559 0.9813 0.0140 4.0429 1.8360 0.6189 -7.1336 -2.7401 -0.0208 -0.6049 -0.6586 -0.5841 6.5645 1.3671 0.4328 -1.5175 -0.2875 -1.7255 -4.4867 -3.5167 -0.7318 -0.1165 0.5532 0.1334 5.4127 2.3165 0.5208 1.6350 2.1660 0.7374 2.9971 2.6920 0.6471
5.8842 0.1935 -0.9341 -0.6342 0.7443 -2.7631 7.3133 1.9839 -0.4720 -2.7920 0.6974 -2.0390 -1.0828 -2.7582 -1.8776 -1.7218 -3.5956 -0.7967 -0.2508 -1.6495 -1.2796 -3.0815 -3.9017 -1.1939 -0.6347 1.2229 2.4924 4.2143 4.1920 1.3775 -6.5147 -2.9696 -0.1680 -5.0595 -2.0344 1.2673 -1.1719 0.4963 1.4973 5.2645 3.4430 0.7196 0.6853 1.8063 2.3364 2.9947 3.6485 1.5295 -5.4380 -3.6157 -0.9631 -3.9956 -2.5623 0.6464 0.7768 0.8806 0.1165 3.7093 1.6030 0.4725 -6.3621 -2.2174 0.8757 -1.1084 -0.5005 -0.7930 6.1257 1.4453 -0.3991 -1.6199 0.3707 -1.9113 -4.1832 -3.3840 -0.5375 -0.4393 0.3195 0.2554 5.0225 2.1966 0.2759 1.3923 1.6590 1.1934 2.7077 2.2860 1.0721
4.7203 -2.2755 -0.1745 -3.6384 3.6478 -2.5116 5.5420 -1.9528 1.9883 -3.1740 4.6166 -0.5053 -4.1684 0.2481 0.0111 -3.6550 -1.1283 -0.3361 -3.9263 1.1957 -1.1402 -2.7810 -1.5855 0.7275 0.1565 1.4195 -2.7871 2.7042 1.0670 2.8116 0.2605 -3.0858 -0.8001 0.1167 -3.6983 1.3577 -1.1002 1.7670 -2.4682 3.6770 0.0355 2.5188 1.1046 1.0975 -1.7404 1.7923 1.4123 1.8871 -0.9914 -2.2891 -0.7382 -1.0275 -3.0256 1.5494 -0.6244 1.4978 -0.1117 2.6467 -0.2319 0.3452 0.8034 -3.7507 0.1701 -2.9001 2.2320 -0.7455 4.6855 -1.6403 1.0530 -3.2450 3.6222 -1.2146 -1.6205 -2.2827 0.4515 -1.5014 1.8427 -1.0737 3.6602 -0.5853 1.3259 0.7481 1.0906 -0.4360 1.7355 0.7394 0.5860
7.7621 4.1009 1.8822 -2.9985 1.5077 0.5433 6.2005 5.2102 0.5394 -1.8990 0.9016 2.4418 -2.1018 -2.0679 -0.3379 -3.2763 -2.6347 -1.1018 -1.8377 -0.6431 -0.7664 -4.2262 -3.1845 -0.1548 0.6719 2.7660 -1.7204 5.6724 0.4543 1.0041 -7.2818 -5.2776 -0.2129 -6.2392 -5.4808 -2.1932 -0.2935 1.9669 -1.2378 6.4086 1.6885 1.1813 2.0236 2.6612 -1.2095 4.4065 0.4838 0.5529 -6.2687 -4.3243 0.3117 -5.2560 -4.6379 -1.8453 1.2661 0.9401 0.2995 4.4244 2.8925 0.4816 -7.2900 -5.8331 -1.3833 -1.0838 0.1146 0.3093 6.6098 4.1130 1.1161 -2.0129 0.8726 1.2241 -5.2647 -4.0178 -0.5304 0.0119 0.9997 -0.1943 5.8087 2.8653 0.9305 2.3398 1.8110 -0.2067 3.7237 1.7517 0.2772

>  <OB_ATOM_TYPES> (1xkbB1)
N.pl3 O.co2 N.pl3 O.co2 C.3 C.3 C.3 N.pl3 C.ar C.ar C.ar C.ar C.ar C.ar C.ar C.ar C.ar C.ar C.ar C.ar N.ar C.3 C.2 C.2 C.ar C.ar C.ar C.ar C.ar

>  <ENSEMBLE_RMSD> (1xkbB1)
1.196 1.509 1.581 1.591 1.735 1.752 1.822 1.885 1.921 2.018 2.025 2.031 2.048 2.056 2.066 2.129 2.130 2.203 2.207 2.222 2.280 2.283 2.297 2.311 2.371 2.379 2.396 2.401 2.431 2.446 2.455 2.472 2.490 2.493 2.527 2.543 2.606 2.624 2.794 2.826 2.843 2.875 2.915 2.962 2.970 2.975 3.005 3.022 3.060 3.168

$$$$
