
 OpenBabel03071213D

 27 29  0  0  0  0  0  0  0  0999 V2000
   14.4220   14.3880   -1.3880 Br  0  0  0  0  0
    8.1680   11.2390    4.8980 O   0  0  0  0  0
    9.5150   10.5330    2.9260 O   0  0  0  0  0
   10.1930    8.0520    2.8860 C   0  0  0  0  0
    8.8740    7.7060    3.5960 C   0  0  0  0  0
   12.4220    7.9960    3.7960 C   0  0  0  0  0
   11.2740    7.1790    3.3600 N   0  0  0  0  0
    8.4220    8.8250    4.4030 N   0  0  0  0  0
   12.8320    8.9590    2.7140 C   0  0  0  0  0
    5.8710   10.2380    0.6260 C   0  0  0  0  0
    4.1820   10.0000    5.3550 C   0  0  0  0  0
   12.8310   10.2810    2.9320 C   0  0  0  0  0
    4.6000   10.1420    1.2050 C   0  0  0  0  0
    7.0150   10.2910    1.4300 C   0  0  0  0  0
   14.4270   11.8150   -0.1830 C   0  0  0  0  0
   13.1280   13.5110    0.9560 C   0  0  0  0  0
    5.4670   10.0980    4.8070 C   0  0  0  0  0
   14.0680   10.8820    0.7990 C   0  0  0  0  0
   12.7720   12.5760    1.9320 C   0  0  0  0  0
    3.2200   10.0000    3.1920 C   0  0  0  0  0
    3.1000    9.9540    4.5420 N   0  0  0  0  0
   13.9540   13.1310   -0.1000 C   0  0  0  0  0
   13.2360   11.2610    1.8630 C   0  0  0  0  0
    4.4810   10.0960    2.5980 C   0  0  0  0  0
    5.6280   10.1480    3.4140 C   0  0  0  0  0
    6.9040   10.2450    2.8280 C   0  0  0  0  0
    8.3850   10.3200    3.8070 S   0  0  0  0  0
  1 22  1  0  0  0
  2 27  2  0  0  0
  3 27  2  0  0  0
  4  5  1  0  0  0
  4  7  1  0  0  0
  5  8  1  0  0  0
  6  7  1  0  0  0
  6  9  1  0  0  0
  8 27  1  0  0  0
  9 12  2  0  0  0
 10 13  2  0  0  0
 10 14  1  0  0  0
 11 17  1  0  0  0
 11 21  2  0  0  0
 12 23  1  0  0  0
 13 24  1  0  0  0
 14 26  2  0  0  0
 15 18  1  0  0  0
 15 22  2  0  0  0
 16 19  2  0  0  0
 16 22  1  0  0  0
 17 25  2  0  0  0
 18 23  2  0  0  0
 19 23  1  0  0  0
 20 21  1  0  0  0
 20 24  2  0  0  0
 24 25  1  0  0  0
 25 26  1  0  0  0
 26 27  1  0  0  0
M  END
>  <MOLID> (1ydtA1)
1ydtA1

>  <SMILES_CANONICAL> (1ydtA1)
Brc1ccc(cc1)/C=C/CNCCNS(=O)(=O)c1cccc2c1ccnc2	

>  <FINGERPRINT> (1ydtA1)
0000000000000000010000001001001000000000100000001000000000000000000000010000000001000001000000000000000110110001000001100000000000000000000011000000000000000000000000000000000000000000000000001000000000010010000000001000000000000000000000000000010000000000000000000000000000000000000000000000000001000000000010000100000000000000001000000010000000000100011000000000000010000000000000000000000000000000000010000001001000000000010000010000000000000001100000000110000000000000010000100000000000000100100000000000010000100000000000000010010000000000000000100000000000000001000000000000000001100000000000000000000000000000100000000111100000000001110000000000000000000000000000000010100000000000100000000000100000100000100000000000000000000000101010100100000000000000001010000000001000000000000000000000000010000000000000000000000100000100000000000101101000100000000000000100000000000001000000000000110000001000010000000000010000000000001000000000011000000000000000000000010000000100000000000000101000001000000000010000001001100000

>  <MACCS166> (1ydtA1)
000000000000000000000000010000011000000000001100011001100111100110100000100101101100011100100100011101011110001100001111100110001110010111010100111100101011011010111000

>  <OB_MW> (1ydtA1)
445.046

>  <OB_logP> (1ydtA1)
5.4412

>  <OB_PSA> (1ydtA1)
79.47

>  <OB_MR> (1ydtA1)
112.173

>  <OB_ATOMIC_CHARGES> (1ydtA1)
-0.0489988972 -0.1515943693 -0.1515943693 0.1098614236 0.1342137638 0.1147587852 -0.2117091653 -0.0762514544 -0.0074062261 0.0014198325 0.0989240783 -0.003140705 0.0016263517 0.0199569823 0.0066954892 0.0066954892 0.0220096043 0.0004957351 0.0004957351 0.0988747228 -0.2423178629 0.0345659848 -0.0002471123 0.0204746121 0.0217066679 0.1236081474 0.0768767566

>  <MCT_HBD> (1ydtA1)
2

>  <MCT_HBA> (1ydtA1)
5

>  <ENSEMBLE_TOTAL> (1ydtA1)
50

>  <ENSEMBLE_COORDS> (1ydtA1)
5.1853 4.0226 -3.9507 -1.0687 0.8736 2.3353 0.2783 0.1676 0.3633 0.9563 -2.3134 0.3233 -0.3627 -2.6594 1.0333 3.1853 -2.3694 1.2333 2.0373 -3.1864 0.7973 -0.8147 -1.5404 1.8403 3.5953 -1.4064 0.1513 -3.3657 -0.1274 -1.9367 -5.0547 -0.3654 2.7923 3.5943 -0.0844 0.3693 -4.6367 -0.2234 -1.3577 -2.2217 -0.0744 -1.1327 5.1903 1.4496 -2.7457 3.8913 3.1456 -1.6067 -3.7697 -0.2674 2.2443 4.8313 0.5166 -1.7637 3.5353 2.2106 -0.6307 -6.0167 -0.3654 0.6293 -6.1367 -0.4114 1.9793 4.7173 2.7656 -2.6627 3.9993 0.8956 -0.6997 -4.7557 -0.2694 0.0353 -3.6087 -0.2174 0.8513 -2.3327 -0.1204 0.2653 -0.8517 -0.0454 1.2443
5.7442 4.4074 -3.8351 -1.4209 1.0560 2.5313 -0.0047 0.3673 0.5816 0.9056 -2.8795 1.6393 -0.5041 -2.5131 1.2451 2.9305 -1.8865 1.0282 1.7846 -2.6159 0.5140 -0.9630 -1.4429 2.1509 3.2055 -0.6557 0.2481 -3.5047 -0.0905 -1.7774 -5.6122 -0.8291 2.6411 4.3457 -0.4696 -0.4204 -4.7628 -0.3572 -1.3831 -2.4198 0.0499 -0.8214 4.0385 2.4186 -2.8122 6.3039 2.3471 -1.9645 -4.1936 -0.5383 2.3113 3.7339 1.2630 -1.9932 6.0085 1.2873 -1.1907 -6.2656 -0.7747 0.4880 -6.5991 -0.9396 1.8095 5.2778 2.9370 -2.8045 4.6651 0.7089 -1.1873 -5.0305 -0.5120 0.0353 -3.9306 -0.3816 1.0029 -2.5894 -0.0812 0.5120 -1.1428 0.1249 1.4514
7.1324 3.5259 -4.5076 -2.2715 0.8660 3.2459 -0.6734 1.0909 1.3271 0.9359 -2.0700 1.5166 -0.5121 -1.9046 1.1330 3.0867 -1.7042 0.7101 1.7417 -2.0761 0.3101 -1.1988 -1.2526 2.2642 3.8197 -1.0040 -0.3708 -3.8999 0.5172 -1.3856 -5.8677 -1.8843 2.4709 4.2310 0.2589 -0.2374 -5.0617 -0.1327 -1.1929 -2.9062 0.6337 -0.3322 5.0449 1.9337 -3.4976 6.8416 2.3682 -1.9335 -4.5574 -1.1939 2.3597 4.3826 1.1601 -2.4671 6.2320 1.6307 -0.9884 -6.4596 -1.3893 0.3564 -6.7748 -1.9863 1.5518 6.2259 2.5198 -3.2395 4.9469 0.9861 -1.2531 -5.3177 -0.7321 0.1042 -4.3081 -0.6248 1.1682 -3.0698 0.1007 0.8981 -1.7425 0.3630 1.9896
4.9647 3.7220 -4.5233 -0.2014 -1.5068 -1.0895 -2.2374 -2.9663 -1.1767 1.0572 -2.2494 2.1772 -0.3350 -1.7049 1.9831 3.2136 -1.3649 1.9350 1.9185 -1.1418 2.5520 -1.0558 -2.6107 1.0700 3.3757 -0.5962 0.6780 -2.6645 1.8372 -0.2000 -5.6332 -1.6450 1.6923 4.2274 0.4251 0.5671 -3.8512 1.8723 0.4316 -1.9781 0.5847 -0.4641 3.5002 2.6046 -2.4000 5.8598 2.0614 -2.4000 -4.3253 -1.7952 1.0023 3.3557 1.8203 -1.1915 5.7149 1.3144 -1.2910 -5.6357 0.5963 1.4865 -6.2684 -0.5403 1.9252 4.7061 2.7254 -2.9798 4.4092 1.1733 -0.6496 -4.4536 0.6209 0.8530 -3.7559 -0.6485 0.5933 -2.4676 -0.6197 -0.0972 -1.4399 -1.9684 -0.4841
4.9191 4.6251 -3.6600 -1.0350 -1.0946 3.5383 -1.0913 1.1501 2.4237 1.1879 -2.7971 1.3412 -0.1971 -2.3496 0.9435 3.2561 -2.6247 0.2611 1.9140 -3.1649 0.1380 -0.2649 -0.8823 1.0892 3.4556 -1.4576 -0.6307 -4.8894 -1.9842 1.9935 -3.6496 1.4366 -1.3625 4.1525 -0.3857 -0.2487 -5.5188 -1.4610 0.9264 -3.5583 -1.5515 2.3815 5.1539 1.8848 -3.0642 4.0014 3.1966 -1.3874 -2.8658 0.9203 -0.2106 4.9580 0.7146 -2.2326 3.8045 2.1033 -0.6293 -5.4201 0.1184 -0.9237 -4.8450 1.0825 -1.7138 4.6992 3.0809 -2.6551 4.2943 0.7953 -1.0601 -4.8392 -0.4418 0.1480 -3.4853 -0.0123 0.5326 -2.8593 -0.6122 1.7082 -1.2777 -0.2889 2.3534
4.0697 4.5969 -3.6588 -0.4835 -2.7169 -1.0181 -2.6972 -3.5207 -0.1593 1.2888 -2.5011 2.3048 0.1375 -1.6792 1.7831 3.4497 -1.7106 1.8833 2.3152 -1.5923 2.7830 -0.9778 -2.6001 1.5031 3.6745 -0.4664 1.1069 -2.0936 1.1898 -1.3995 -4.9909 -0.3131 2.3219 3.4282 -0.4012 -0.2035 -3.0593 1.7850 -0.6771 -1.7020 -0.1882 -1.1616 2.9637 3.0588 -1.5789 4.6916 1.9459 -2.8581 -3.9450 -1.0647 1.5803 2.8365 1.8604 -0.7737 4.5840 0.8445 -2.0938 -4.6912 1.5619 1.1149 -5.3607 0.9120 2.1215 3.8529 3.0992 -2.5852 3.6230 0.7859 -0.9941 -3.7215 1.0199 0.3632 -3.3232 -0.3749 0.6088 -2.2665 -0.9640 -0.2107 -1.6030 -2.5668 -0.1025
6.4564 4.0454 -3.8638 -0.5581 0.7670 -0.2290 -2.1512 -0.3554 -1.8065 1.0073 -2.2435 1.1665 -0.4073 -1.7715 1.3849 3.2398 -1.6179 1.4578 1.8917 -1.3991 1.9495 -1.0825 -1.7380 0.0744 3.7290 -0.4532 0.6827 -3.7035 1.4511 2.5431 -5.8790 -2.2111 0.0221 4.4943 -0.5927 -0.4016 -4.8993 0.8430 2.6374 -2.7348 1.0743 1.5288 6.2255 2.5567 -1.4845 5.0063 1.6585 -3.3734 -4.5319 -1.6122 -0.1623 5.7447 1.4437 -0.6910 4.5480 0.6380 -2.6267 -6.3953 -0.8574 1.7442 -6.7696 -1.8729 0.9000 5.8757 2.6571 -2.7778 4.9183 0.5154 -1.2179 -5.2161 -0.2193 1.7006 -4.2292 -0.6116 0.6820 -2.9534 0.0968 0.6226 -1.6257 -0.1911 -0.4622
7.1616 3.9268 -2.5056 -2.7347 1.5958 -1.6088 -2.3849 -0.4858 -2.9630 0.1365 -1.7300 0.4194 -0.2762 -1.3726 -0.9867 2.3402 -1.9201 1.2028 1.3512 -2.5239 0.3273 -0.8187 -0.0006 -0.9773 3.3516 -1.1266 0.4589 -4.8944 -2.6003 -0.2512 -3.2691 0.8410 2.9149 3.4274 0.2006 0.5850 -5.1058 -2.3705 1.0570 -4.0325 -1.7445 -1.0481 5.2688 1.8625 -2.2376 5.9714 2.8723 -0.1534 -2.9723 0.6753 1.4692 4.3958 0.9891 -1.4791 5.1762 2.0428 0.5461 -4.6272 -0.9527 2.9788 -4.0417 0.0975 3.6415 6.0245 2.7727 -1.6008 4.3519 1.0422 -0.1308 -4.4523 -1.2335 1.6790 -3.5745 -0.3696 0.8764 -3.3846 -0.6744 -0.5392 -2.3885 0.1864 -1.6744
5.4935 3.0419 -4.2809 -0.6989 -2.4303 -2.1147 -2.9682 -3.2095 -1.3922 0.0991 -2.2079 2.0911 0.2863 -2.8410 0.7322 1.0156 -0.0439 2.1482 1.2970 -1.4472 2.4033 -1.0199 -3.3439 0.2698 1.6262 0.4298 0.8811 -1.5836 1.4407 -0.6520 -4.4825 -1.0598 2.4850 2.7466 1.1539 0.8409 -2.3527 1.8021 0.3899 -1.4624 0.0540 -1.0646 4.4907 1.1250 -2.4830 4.1617 3.4253 -1.8038 -3.6546 -1.5689 1.3597 3.8338 0.7073 -1.2609 3.5326 3.0317 -0.6821 -3.8849 1.0807 2.1357 -4.6127 0.1724 2.8629 4.6553 2.4331 -2.7417 3.3499 1.6124 -0.3839 -3.0896 0.7736 1.1002 -2.9654 -0.6330 0.6848 -2.0941 -0.9642 -0.4412 -1.7190 -2.5344 -1.0838
7.8063 3.4013 -3.7475 -3.4455 0.1181 4.2761 -1.6175 1.6401 3.4733 0.1055 -1.4121 1.3663 0.0182 -0.6693 2.6780 1.5269 -1.2006 -0.4931 1.4958 -1.4017 0.9455 -1.3028 -0.9213 3.2843 2.6142 -0.2682 -0.8782 -3.2372 1.3964 -0.4810 -4.9794 -2.9103 1.2334 3.3344 -0.3949 -1.9955 -3.9761 0.4124 -1.0249 -2.7791 1.3368 0.8975 5.3086 2.7478 -2.6275 6.6072 0.8530 -3.3858 -4.1624 -1.8813 1.9246 4.2671 1.8249 -2.2243 5.6445 0.0003 -2.9902 -5.0522 -1.7494 -0.6941 -5.4113 -2.8705 0.0129 6.4344 2.2813 -3.1926 4.4126 0.4901 -2.3703 -4.3172 -0.7379 -0.2076 -3.8482 -0.8051 1.1839 -3.0524 0.2981 1.7155 -2.3941 0.4222 3.3213
6.4213 4.0276 -4.3273 -2.8237 -4.4560 0.2853 -4.2028 -3.4354 2.1136 0.2182 -1.7832 1.6408 -0.3491 -3.1739 1.4960 2.1717 -0.5519 1.3410 1.4090 -1.6720 0.8188 -1.6400 -3.2177 2.2126 3.0909 0.0249 0.3298 -2.5396 -0.7341 -1.7330 -3.7968 1.0706 2.7003 2.9735 1.2878 -0.0868 -2.7437 0.5083 -1.2611 -2.7023 -1.9053 -0.8906 4.7013 2.0334 -3.3375 5.2987 3.7455 -1.7350 -3.5880 -0.3405 2.2836 3.8973 1.4019 -2.3101 4.5680 3.1428 -0.7800 -3.3544 1.8852 0.6504 -3.7088 2.1259 1.9544 5.3718 3.1651 -3.0635 3.8341 1.9093 -1.0608 -3.1315 0.6701 0.1281 -3.2723 -0.5149 0.9891 -3.0506 -1.8386 0.4129 -3.0522 -3.3750 1.2291
6.0137 3.9348 -4.4926 -3.6060 -0.6884 4.2228 -1.8008 1.0530 4.1806 0.3216 -1.6128 1.5286 0.0313 -0.8724 2.8113 2.0463 -1.9986 -0.0230 1.7645 -1.6388 1.3557 -1.2738 -1.3251 3.3307 2.5579 -0.8506 -0.8127 -2.8371 1.9943 0.1620 -4.4780 -2.6769 0.1585 3.8072 -0.7798 -1.2795 -3.4096 1.2123 -0.7706 -2.5827 1.5143 1.5090 4.7795 2.7089 -2.2838 5.4142 1.1912 -4.0588 -3.8511 -1.8994 1.2588 4.2692 1.5730 -1.5434 4.9172 0.1436 -3.3764 -4.3558 -0.9674 -1.2997 -4.7292 -2.2631 -1.0431 5.3349 2.5262 -3.4935 4.3049 0.3263 -2.0607 -3.7789 -0.1444 -0.4114 -3.5127 -0.6360 0.9492 -2.8881 0.2635 1.9167 -2.4585 -0.0875 3.5654
7.9863 2.9987 -3.7187 -1.9284 -3.5042 -1.3589 -3.5255 -4.1180 0.4756 0.1113 -1.1800 1.6387 -0.0532 -2.3378 0.6841 1.5748 0.6013 1.2418 1.5110 -0.7920 1.6467 -1.2383 -3.1159 1.0938 2.8703 0.9342 0.5994 -3.3967 0.4808 -1.3158 -4.5728 -0.6796 3.3503 2.9431 1.6666 -0.5147 -3.9653 1.1630 -0.3058 -2.9864 -0.9038 -1.1638 6.3221 1.3589 -2.1476 5.4538 3.5759 -2.5710 -3.9394 -1.5202 2.3024 5.1202 1.0721 -1.3899 4.3498 3.3093 -1.8499 -4.7356 1.1173 2.0044 -4.9579 0.5518 3.2355 6.4806 2.5616 -2.7248 4.1592 2.0046 -1.2145 -4.1707 0.4882 0.9629 -3.7525 -0.9135 1.1182 -3.1419 -1.5990 -0.0167 -2.5178 -3.2200 -0.0615
7.9331 3.3222 -3.6636 -3.3789 -0.0508 4.3849 -1.8587 1.7711 3.5692 0.0024 -1.2919 1.2083 -0.0462 -0.3107 2.3553 1.6512 -1.2903 -0.4591 0.4739 -0.5904 0.0271 -1.1542 -0.6918 3.2536 2.7174 -0.3376 -0.8527 -3.6000 1.4691 -0.3068 -4.5758 -3.1453 1.1995 3.4782 -0.4996 -1.9379 -4.1917 0.4094 -0.8864 -3.0932 1.4111 1.0534 6.5346 1.6872 -1.8525 5.5767 1.7890 -4.0724 -3.9103 -2.0366 1.9306 5.4687 0.7822 -1.4737 4.5765 0.9665 -3.7075 -4.9036 -1.9078 -0.6515 -5.0559 -3.1082 -0.0029 6.5915 2.1680 -3.1057 4.4996 0.4340 -2.3470 -4.3212 -0.8199 -0.1255 -3.7995 -0.8843 1.2479 -3.1708 0.3030 1.8213 -2.4436 0.4525 3.3940
6.7380 4.4733 -2.3663 -2.1686 -2.0215 4.2897 -2.3465 0.4575 3.9655 0.2022 -1.7503 0.6749 0.0267 -2.0495 2.1429 1.5929 -2.0827 -1.1779 1.3598 -2.4854 0.1976 -0.4457 -0.8207 2.8094 2.6825 -1.0814 -1.2766 -4.4507 -2.6834 0.7873 -2.6789 1.7622 -0.4751 2.5742 0.0104 -2.0368 -4.5744 -1.9116 -0.3068 -3.6655 -2.2598 1.9324 5.8036 1.8299 -2.6352 4.1809 3.4032 -1.7683 -2.4827 0.9940 0.7819 4.7936 0.7943 -2.5463 3.2534 2.4339 -1.6712 -3.9953 0.1863 -1.3953 -3.3861 1.4115 -1.5022 5.5068 3.0879 -2.2684 3.5601 1.0601 -2.0668 -3.9062 -0.6236 -0.3297 -3.1090 -0.1942 0.8304 -3.0085 -1.0810 1.9871 -2.0567 -0.8591 3.4238
6.8994 4.4233 -4.3543 -2.6968 -4.4049 0.5163 -3.7600 -3.5567 2.6209 0.6227 -1.5087 1.5631 -0.4567 -2.3559 0.9395 2.6023 -0.3426 1.0892 1.5828 -1.2039 0.5186 -1.4121 -2.7437 1.9921 3.1673 0.5588 0.0565 -4.3310 -1.1282 -1.6113 -4.0735 1.0761 2.8126 4.4790 0.7298 -0.1233 -4.6157 0.1113 -1.1747 -3.8253 -2.1536 -0.7160 5.4258 3.8237 -2.0288 6.3409 1.9026 -3.1823 -3.7235 -0.3177 2.4343 4.8703 2.9201 -1.0409 5.8114 1.0683 -2.2694 -4.6835 1.6372 0.7204 -4.5227 2.0074 2.0323 6.1378 3.3347 -3.0579 5.0272 1.5837 -1.1478 -4.4138 0.4185 0.2293 -3.9040 -0.6212 1.1377 -3.6043 -1.9457 0.6001 -2.9439 -3.3128 1.4438
7.7868 3.9070 -2.0851 -1.4326 -2.3874 3.9587 -2.4938 -0.1279 4.2014 0.0665 -1.0352 0.3168 0.3305 -1.3110 1.7762 1.1746 -1.2843 -1.7324 0.8989 -1.9338 -0.4636 -0.5161 -0.4090 2.5798 2.4829 -0.5856 -1.7176 -3.8720 -3.2062 0.5710 -4.0825 1.7331 0.3237 2.6572 0.5945 -2.3156 -4.4712 -2.3444 -0.2700 -3.0930 -2.7469 1.7079 6.2662 1.5950 -2.5941 5.0058 3.4724 -1.7296 -3.3829 0.8686 1.3084 5.0340 0.8338 -2.6389 3.8696 2.7534 -1.7524 -4.9031 -0.0148 -0.8318 -4.8065 1.3459 -0.6783 6.2523 2.8672 -2.1622 3.8675 1.3684 -2.2200 -4.3269 -0.9206 -0.0275 -3.5280 -0.4534 1.1157 -2.9104 -1.4404 1.9976 -1.8738 -1.1383 3.3617
5.6322 4.8000 -4.1299 -3.1300 -4.3920 0.7404 -3.9719 -3.0638 2.6908 0.8702 -2.5296 1.6995 -0.4120 -3.0463 1.0956 2.5408 -0.9796 1.1501 1.1040 -1.1857 1.2027 -1.4691 -3.0022 2.1259 2.8774 0.1259 0.2219 -3.6046 -1.0006 -1.7750 -3.2067 1.4438 2.5110 4.1199 0.3674 -0.2010 -3.6227 0.3034 -1.4466 -3.4472 -2.0389 -0.7715 4.5152 3.7585 -1.7680 5.4875 2.1063 -3.2475 -3.1646 -0.0186 2.2528 4.1698 2.6872 -0.8563 5.1436 1.1137 -2.4075 -3.4966 1.9550 0.3379 -3.3646 2.3849 1.6351 5.1539 3.4802 -2.9167 4.4500 1.3998 -1.1519 -3.4813 0.6710 -0.0498 -3.3090 -0.3790 0.9664 -3.2994 -1.7779 0.5455 -3.0847 -3.1829 1.5463
4.7230 4.7190 -3.8820 -2.2167 -4.0253 -0.7572 -3.9999 -3.4059 0.8920 0.5434 -2.4425 2.4467 -0.1253 -3.1532 1.2948 2.3154 -1.0575 1.7934 0.8847 -1.0876 2.0473 -1.5427 -3.3743 1.6437 2.7190 0.1378 1.0127 -1.5348 0.0736 -1.6719 -3.8611 0.7655 2.6429 3.1357 0.0578 -0.2534 -1.8902 1.1674 -0.9751 -1.8431 -1.2649 -1.2005 3.2311 3.4646 -1.8523 4.9397 2.0796 -2.8639 -3.5018 -0.5034 1.9591 2.8786 2.3454 -1.0026 4.6212 1.0521 -2.0562 -2.9763 2.0476 1.0182 -3.6352 1.9689 2.2199 4.2199 3.3354 -2.7526 3.5479 1.1741 -1.0687 -2.5925 0.9935 0.2829 -2.8838 -0.3621 0.7741 -2.4867 -1.5094 -0.0383 -2.6698 -3.1960 0.3469
6.5426 5.0562 -2.6010 -2.3444 -2.8271 3.8893 -2.7203 -0.3640 4.1734 0.2067 -1.7447 0.5874 -0.1012 -2.2573 1.9736 1.8181 -1.7523 -1.1243 1.5897 -2.0660 0.2761 -0.7346 -1.1688 2.7453 2.4894 -0.4417 -1.3109 -4.6480 -2.7340 0.3177 -3.0948 1.9646 0.1799 3.7068 -0.3097 -1.8435 -4.8212 -1.7245 -0.5538 -3.8619 -2.5712 1.5280 5.2419 3.0447 -1.1302 5.4744 2.5785 -3.4937 -2.8444 0.9195 1.2066 4.5780 1.7659 -0.9795 4.8356 1.4030 -3.3515 -4.3487 0.6005 -1.0970 -3.7971 1.8422 -0.9017 5.6781 3.4354 -2.3393 4.3514 0.9653 -2.0427 -4.2078 -0.4416 -0.2643 -3.4087 -0.2750 0.9597 -3.2509 -1.4140 1.8620 -2.3289 -1.4838 3.3348
5.9327 4.9099 -2.3949 -1.9567 -1.4856 4.3628 -1.9111 0.9065 3.6121 0.0588 -2.3006 0.6684 0.0091 -2.1794 2.1724 1.5706 -2.1737 -1.1210 1.4316 -2.5641 0.2713 -0.3061 -0.7775 2.5149 2.1563 -0.8192 -1.2749 -4.6926 -2.4089 1.2456 -2.5857 1.5106 -0.9237 3.3701 -0.6072 -1.7890 -4.8597 -1.8054 0.0557 -3.7303 -1.9236 2.2187 4.6921 2.8158 -0.9895 5.0287 2.3907 -3.3488 -2.3235 0.9213 0.4154 4.0931 1.5022 -0.8748 4.4488 1.1818 -3.2408 -4.1800 0.0032 -1.4237 -3.4523 1.1055 -1.7973 5.1472 3.2430 -2.1791 3.9458 0.7039 -1.9535 -4.0542 -0.6386 -0.2526 -3.0719 -0.1505 0.7281 -2.9370 -0.8520 2.0035 -1.8237 -0.5084 3.2950
5.2425 4.8954 -3.7694 -3.3241 -2.9194 3.5389 -2.9306 -0.4777 3.9395 0.8191 -2.7173 1.6391 -0.6462 -2.9058 1.9340 2.4047 -2.0488 0.0756 0.9755 -2.1294 0.3201 -1.0494 -1.9025 2.9392 2.7647 -0.9248 -0.8221 -4.6753 -2.0324 -0.3802 -1.6778 1.8702 0.1503 3.6256 0.0250 -0.4489 -4.3261 -1.0158 -1.1884 -4.1472 -2.1523 0.9675 3.4274 3.1783 -2.4783 5.7495 2.5164 -2.3056 -1.9991 0.7911 1.1190 3.0729 2.0129 -1.6936 5.4118 1.4246 -1.5960 -3.0188 1.0226 -1.4465 -2.1441 2.0038 -1.0509 4.7158 3.4243 -2.7691 4.0139 1.1411 -1.2729 -3.4011 -0.0154 -0.6877 -2.8610 -0.1391 0.6750 -3.2766 -1.2687 1.5017 -2.7462 -1.6562 3.1094
6.2378 5.0412 -3.2919 -3.0555 -4.3883 1.4014 -4.0820 -2.7765 3.0240 0.6429 -1.8799 2.1271 -0.3728 -2.9522 1.8110 2.1105 -1.3640 0.3692 0.8289 -1.0252 0.9662 -1.5270 -2.7922 2.7197 2.8904 -0.1651 -0.0291 -3.1625 -1.4330 -1.6367 -3.0712 1.6623 2.2245 3.0960 0.1774 -1.3037 -3.1419 -0.0934 -1.5217 -3.1675 -2.2979 -0.4704 4.5688 3.6391 -1.5144 5.3224 2.3550 -3.4206 -3.0913 0.1764 2.2099 3.8347 2.4731 -1.0649 4.6557 1.2703 -2.9860 -3.1104 1.8213 -0.0196 -3.0871 2.4531 1.1987 5.2811 3.5856 -2.6521 3.8752 1.3088 -1.7481 -3.1271 0.4913 -0.1935 -3.1230 -0.3843 0.9891 -3.1456 -1.8321 0.7971 -3.0795 -3.0707 2.0147
8.0734 4.2484 -2.1469 -1.9514 -3.5340 3.3040 -2.8744 -1.4257 4.2989 0.1668 -0.9490 0.5886 0.0332 -1.9138 1.7406 1.2229 -0.5900 -1.4768 1.1268 -1.5031 -0.3511 -0.8094 -1.2874 2.7768 2.4234 0.2777 -1.3897 -4.3370 -2.9396 -0.1503 -3.9628 1.8167 1.1676 3.1751 0.5950 -2.4466 -4.7807 -1.7902 -0.6888 -3.5665 -2.9566 1.0803 6.5511 1.9627 -1.5231 5.4840 3.5129 -3.0443 -3.4269 0.6076 1.8450 5.3791 1.1156 -1.6219 4.3919 2.7306 -3.1183 -4.8978 0.6342 -0.5032 -4.6537 1.8560 0.0725 6.6045 3.1155 -2.2110 4.3138 1.4773 -2.3684 -4.4792 -0.5419 -0.0123 -3.6994 -0.5584 1.2355 -3.2402 -1.8395 1.7657 -2.2669 -2.1209 3.1772
8.2006 2.9661 -2.7287 -1.5138 -3.8804 2.7259 -2.7930 -2.1699 4.0353 0.3922 -0.5004 0.9488 0.4051 -1.7106 1.8481 0.3728 0.2334 -1.2744 0.2955 -0.9471 -0.4306 -0.5908 -1.4929 2.9148 1.7661 0.5115 -1.7051 -3.5219 -2.7012 -0.8091 -4.0295 1.5750 1.6297 2.3327 1.7111 -1.5556 -4.0739 -1.5152 -1.1202 -2.9030 -2.9374 0.4829 5.5756 2.1804 -3.3922 5.9395 2.6652 -1.0484 -3.3868 0.3102 2.0728 4.1887 1.8953 -3.0808 4.6547 2.3866 -0.7641 -4.5869 0.7472 -0.3866 -4.6012 1.8031 0.4900 6.4173 2.5563 -2.4149 3.7267 1.9693 -1.8147 -4.0464 -0.4537 -0.1315 -3.4136 -0.6904 1.1762 -2.8266 -1.9996 1.4522 -1.9801 -2.5120 2.8803
4.9997 5.1873 -3.3936 -3.6477 -3.5282 2.6877 -3.3676 -1.2990 3.7937 0.7521 -2.9194 1.6407 -0.7292 -3.2029 1.6530 2.4794 -1.8206 0.5157 1.0629 -2.1350 0.4596 -1.3258 -2.4523 2.7742 2.7571 -0.4832 -0.0600 -4.3698 -1.5901 -1.0025 -1.5582 1.9540 1.0055 3.7322 -0.2688 -0.9461 -3.9110 -0.4067 -1.4464 -4.0593 -2.0753 0.3301 4.8105 3.3082 -1.3029 4.0894 2.5052 -3.4702 -2.0071 0.6640 1.5921 4.5049 2.0008 -0.7575 3.7961 1.2976 -2.9554 -2.6059 1.5866 -0.9517 -1.8246 2.4081 -0.1783 4.6143 3.5500 -2.6097 3.9942 1.0212 -1.5331 -3.0883 0.3971 -0.5614 -2.7735 -0.0943 0.7898 -3.2966 -1.3917 1.2106 -3.0280 -2.2130 2.7160
8.6325 3.2113 -3.8766 -2.3413 -4.4602 1.4242 -3.3076 -3.2218 3.3760 0.5652 -0.9793 1.2686 -0.4134 -2.0976 1.0196 1.5780 0.6354 -0.0812 1.3462 -0.7904 0.0601 -1.1765 -2.3295 2.2601 2.7724 0.9057 -0.9155 -4.5839 -2.0290 -1.2305 -4.3607 1.1905 2.5220 3.5819 1.9404 -0.6805 -5.0338 -0.7734 -1.0582 -3.8613 -2.7310 -0.1843 5.8722 2.7980 -3.5277 7.2017 2.5332 -1.5216 -3.8201 -0.1906 2.4331 4.6926 2.4922 -2.7440 6.1055 2.2284 -0.8041 -5.2171 1.1353 0.4416 -5.0205 1.8302 1.6090 7.0793 2.8238 -2.9386 4.7843 2.1990 -1.4297 -4.7885 -0.1148 0.2117 -4.0489 -0.8218 1.2692 -3.5838 -2.1836 1.0189 -2.6542 -3.2003 2.0784
2.6470 4.0844 -3.9974 -2.1963 -3.6032 -1.3126 -3.9972 -2.8572 0.2610 0.4562 -2.7804 2.2346 -0.1896 -3.3015 0.9739 2.3747 -1.4176 2.3133 1.8942 -2.7578 2.0212 -1.6494 -3.3130 1.1777 2.3081 -0.5327 1.1247 -1.1508 0.4351 -1.9825 -2.8823 1.0241 2.6168 3.2975 0.2760 0.7394 -1.2655 1.4927 -1.1607 -1.6029 -0.8854 -1.5860 3.9413 2.0665 -2.4960 1.9435 2.9974 -1.4931 -2.8376 -0.2035 1.7789 4.0576 1.1757 -1.3546 2.0652 2.1794 -0.4339 -1.9274 2.3060 1.0337 -2.4543 2.2041 2.2968 2.9162 2.9321 -2.5668 3.1455 1.1965 -0.3605 -1.8259 1.2918 0.1619 -2.2990 -0.0442 0.5581 -2.1608 -1.1514 -0.3849 -2.6080 -2.8141 -0.1629
2.8418 3.9893 -3.9890 -1.8783 -3.6043 -1.0308 -3.5651 -2.9421 0.7026 1.2007 -3.3379 2.0435 0.3277 -2.9411 0.8790 2.9039 -1.7277 2.1665 2.5857 -3.0669 1.6978 -1.0747 -2.9575 1.3300 3.1236 -0.7939 1.0352 -1.2677 0.5025 -2.0216 -3.1633 1.1852 2.5007 2.4235 0.3334 0.8881 -1.5442 1.5956 -1.2880 -1.5292 -0.8382 -1.5245 2.6528 3.4183 -1.2270 2.6613 1.4902 -2.6942 -2.8809 -0.0809 1.7784 2.5622 2.5135 -0.0953 2.5662 0.6593 -1.6426 -2.4217 2.4724 0.8090 -2.9636 2.3896 2.0679 2.7079 2.9235 -2.4750 2.5356 1.1767 -0.2744 -2.1168 1.4204 0.0344 -2.3701 0.0645 0.5442 -2.0577 -1.0810 -0.3056 -2.2597 -2.7630 0.0908
4.5364 5.0127 -3.5612 -3.6899 -3.9640 0.5662 -4.5157 -2.2663 2.2155 0.3040 -2.6790 2.1477 -0.8552 -3.5271 1.6789 2.0900 -1.4812 1.1980 0.6746 -1.7783 1.0704 -2.0817 -3.0787 2.3701 2.4366 -0.2070 0.5208 -2.3149 -0.8141 -1.9423 -1.9751 1.5862 2.3734 3.2811 -0.1378 -0.5116 -1.8867 0.4130 -1.5952 -2.8180 -1.7551 -0.9560 5.1790 2.6409 -2.1683 2.8124 3.0666 -2.4510 -2.4841 0.2198 2.0934 4.8391 1.4309 -1.4410 2.5047 1.9399 -1.7853 -1.5214 2.0082 0.2094 -1.5276 2.4433 1.5116 4.2033 3.4315 -2.6464 3.5525 1.0846 -1.2265 -1.9405 0.8007 -0.1974 -2.4548 -0.1482 0.8014 -2.8951 -1.4687 0.3611 -3.4527 -2.7728 1.3643
9.1385 3.0120 -2.6638 -1.6896 -3.2441 3.4009 -2.5694 -1.0423 4.2120 -0.1924 -0.7358 0.0165 -0.2746 -1.7469 1.1326 1.2768 0.2333 -1.5237 1.0819 -0.9131 -0.6551 -0.8315 -1.0701 2.3200 2.7178 0.4804 -1.7674 -4.5660 -3.3079 0.2738 -4.6759 1.5682 1.1191 3.2179 1.7114 -1.8923 -5.2546 -2.2879 -0.2679 -3.6212 -3.1007 1.3570 6.6770 1.8343 -3.3454 6.6587 3.1091 -1.2865 -3.8584 0.5163 1.7776 5.2742 1.5406 -3.1352 5.3621 2.8137 -1.0851 -5.7004 0.1046 -0.2496 -5.5483 1.4006 0.1764 7.3428 2.5928 -2.4587 4.6233 1.9902 -2.0414 -5.0380 -0.9497 0.2494 -4.0670 -0.7350 1.3338 -3.3568 -1.8864 1.8865 -2.1269 -1.8875 3.1165
2.4226 4.3786 -3.7426 -2.8984 -3.7718 0.4670 -3.6941 -2.1350 2.1888 1.1497 -3.2916 2.0848 -0.0169 -2.9444 1.1960 3.1131 -2.0936 1.6381 2.3536 -3.2768 1.2709 -1.1914 -2.6826 2.0473 3.1846 -1.1087 0.5296 -2.1248 -0.6075 -2.2450 -1.8158 2.0585 1.9122 2.6745 0.1201 0.6404 -1.8642 0.6872 -1.9915 -2.4037 -1.5531 -1.1784 2.4580 1.7462 -2.7486 2.6467 3.4730 -1.0637 -2.1042 0.6111 1.7419 2.5232 0.7584 -1.6907 2.7270 2.5496 -0.0891 -1.6196 2.4201 -0.3001 -1.5957 2.9259 0.9756 2.5113 3.0540 -2.4467 2.6707 1.1206 -0.3979 -1.8651 1.1389 -0.6123 -2.1321 0.1785 0.4702 -2.4135 -1.2135 0.1290 -2.6956 -2.5418 1.2150
8.7611 2.8706 -4.1956 -1.8233 -0.8312 -1.5886 -2.8565 -2.9777 -0.8090 0.7006 -0.5913 1.3668 -0.7771 -0.3572 1.1925 2.7849 0.4403 1.1980 1.4051 0.5193 0.7568 -1.3933 -1.6427 0.8195 3.6913 1.0676 0.2098 -5.0730 1.3732 0.0598 -5.6772 -2.7501 2.7320 4.9137 0.5920 -0.0334 -5.9619 0.9970 0.9965 -4.0061 0.4900 -0.3793 7.1226 2.9754 -1.9109 7.1671 0.8309 -3.0348 -4.6412 -2.4285 1.7169 6.2096 2.4076 -0.9400 6.3024 0.3159 -2.1429 -6.6995 -0.7567 2.5160 -6.6509 -1.9887 3.1197 7.5871 2.2157 -2.9168 5.7870 1.1299 -1.0436 -5.8399 -0.3260 1.5805 -4.7507 -1.2157 1.1485 -3.8238 -0.7524 0.1184 -2.4578 -1.6076 -0.5366
4.6219 4.6551 -2.4246 -2.3789 -0.7982 4.2244 -1.4175 1.3151 3.2815 -0.0592 -2.7960 1.4362 -0.1635 -2.3658 2.8808 1.5009 -2.8768 -0.3072 1.3297 -3.0831 1.1210 -0.1518 -0.8895 2.9376 2.3047 -1.6639 -0.6012 -4.2620 -1.6681 0.5308 -0.7985 1.3787 -1.2553 1.8928 -0.7304 -1.4616 -3.9253 -1.2717 -0.7093 -3.5184 -1.2297 1.6981 3.4397 2.2092 -3.1959 3.4696 2.6375 -0.8132 -1.0482 0.9612 0.1485 2.8121 0.9292 -2.9222 2.8877 1.4507 -0.5668 -2.4370 0.0786 -2.0816 -1.4125 0.9610 -2.3163 3.7598 3.0287 -2.1802 2.5617 0.5309 -1.6575 -2.8056 -0.3627 -0.8697 -2.0665 0.1009 0.3154 -2.4611 -0.3917 1.6325 -1.6745 -0.1093 3.1558
8.9223 2.6451 -3.1043 -3.3354 0.3999 4.2152 -2.6843 2.4180 2.8750 -0.2968 -0.3618 0.5891 -0.5145 0.7899 1.5393 1.5923 -0.7546 -0.7335 0.4552 0.1304 -0.5506 -1.2450 0.2853 2.7179 2.8315 0.0126 -1.0024 -4.8512 0.8901 -0.4551 -3.9360 -3.4444 1.7553 3.7473 -0.3789 -1.8911 -5.1397 -0.3872 -0.7622 -4.1290 1.2397 0.7558 7.0052 1.4381 -1.4390 6.4931 1.3498 -3.8029 -3.5696 -2.0709 2.1869 5.7742 0.7191 -1.1826 5.3396 0.7030 -3.5561 -4.9743 -2.7270 -0.1080 -4.5984 -3.7767 0.6928 7.3557 1.7366 -2.7010 4.9441 0.3689 -2.1881 -4.7132 -1.4359 0.1460 -3.9728 -1.0852 1.3673 -3.6941 0.3215 1.6455 -2.8061 0.9745 2.9906
4.0609 5.0356 -3.1584 -3.5210 -3.0449 2.8376 -3.5138 -0.6400 3.5497 0.6258 -2.2485 1.7840 -0.4921 -2.9093 2.5527 1.7856 -2.5206 -0.2348 0.4676 -2.5594 0.3729 -1.2711 -1.8592 3.2392 2.0297 -1.2557 -0.9711 -3.1329 -1.8445 -1.2278 -1.0890 2.1648 0.8352 3.0449 -0.4467 -0.6588 -2.5802 -0.7244 -1.7269 -3.2360 -2.0724 0.2033 4.8119 2.5169 -2.1178 2.4368 2.9906 -2.0906 -1.6768 0.9667 1.4861 4.5242 1.2187 -1.5347 2.1803 1.7910 -1.5425 -1.5277 1.4185 -1.2428 -1.0260 2.4089 -0.4353 3.8059 3.3645 -2.3910 3.2569 0.8414 -1.2664 -2.0784 0.2770 -0.8037 -2.1718 0.0431 0.6450 -2.7849 -1.1928 1.1233 -2.9286 -1.7196 2.7734
5.2124 4.3112 -3.9969 -3.5933 -3.9248 0.7727 -4.1668 -2.1876 2.4819 0.5669 -3.2366 1.8754 -0.7687 -3.9103 1.6877 1.5854 -1.3071 1.0821 0.9120 -2.5194 0.6594 -1.7886 -3.1322 2.4166 2.0407 -0.4732 -0.0549 -2.6252 -0.7996 -1.9114 -1.5205 1.6216 2.2592 2.3753 0.8062 0.1265 -2.1949 0.4468 -1.6484 -2.9032 -1.7493 -0.8489 4.7135 3.2818 -1.4212 3.2292 2.4716 -3.1533 -1.9899 0.2225 2.0804 4.0209 2.4255 -0.4774 2.5883 1.6833 -2.2724 -1.5637 2.0660 0.0542 -1.3319 2.5073 1.3329 4.3379 3.2977 -2.7111 3.0058 1.6290 -0.8718 -1.9795 0.8315 -0.2661 -2.2232 -0.1444 0.8090 -2.7232 -1.4726 0.4610 -3.2158 -2.7452 1.5348
5.2451 4.2894 -3.0458 -1.7665 -0.5745 -2.7899 -2.2462 -3.0174 -2.4903 -0.0893 -2.6305 1.1130 -0.1159 -3.1191 -0.3174 1.5215 -1.2323 2.0884 1.2886 -2.5712 1.5718 -0.2792 -1.9541 -1.2122 2.0690 -0.3395 1.0403 -4.6455 -2.1088 0.9061 -1.7095 1.8729 1.1083 3.0397 0.5494 1.2570 -4.5607 -1.0600 1.7440 -3.7652 -2.2420 -0.2417 3.2185 3.0515 -1.5385 5.4690 2.3559 -0.9801 -1.7234 0.7618 0.1224 2.7270 2.1596 -0.5091 5.0045 1.5113 -0.0420 -3.4289 1.0264 2.2885 -2.5021 2.0253 2.1215 4.5395 3.1534 -1.7598 3.5705 1.3953 0.2172 -3.5593 -0.0412 1.4868 -2.6597 -0.1793 0.3318 -2.8057 -1.3406 -0.5424 -1.8357 -1.7420 -1.9278
2.1175 4.4114 -3.5719 -2.9369 -3.2911 1.8468 -2.8259 -1.1601 3.1633 1.1977 -3.6609 1.8588 -0.0052 -3.0179 1.2136 3.0995 -2.3871 1.3554 2.3257 -3.5492 0.9502 -0.6598 -2.1643 2.2228 3.1143 -1.3410 0.3029 -3.3514 -1.0394 -1.7134 -0.8264 2.3526 0.8554 2.7142 -0.0884 0.5329 -2.8711 0.1808 -2.0103 -3.1570 -1.6359 -0.4044 2.3951 1.7282 -2.7570 2.4431 3.3513 -0.9640 -1.2772 1.0003 1.2747 2.5397 0.6824 -1.7638 2.5937 2.3758 -0.0503 -1.6666 2.1419 -1.2211 -0.9959 2.9089 -0.3021 2.3349 3.0133 -2.3710 2.6417 0.9683 -0.4476 -2.1473 0.9119 -0.9869 -1.9470 0.3059 0.3395 -2.4861 -1.0269 0.5973 -2.3634 -1.9708 2.0501
5.3087 4.2732 -3.9364 -3.7127 -3.8668 0.7994 -4.1529 -2.1247 2.5423 0.5448 -3.2451 1.8730 -0.7986 -3.8686 1.5772 1.4028 -1.2540 1.0301 1.0592 -2.6125 0.6663 -1.8187 -3.1684 2.3833 1.9998 -0.4623 -0.0771 -2.6028 -0.7995 -1.8966 -1.4387 1.6040 2.2688 2.1902 0.8547 0.0636 -2.1110 0.4254 -1.6397 -2.9271 -1.7293 -0.8302 4.8327 3.0437 -1.4414 3.1322 2.6505 -3.1153 -1.9769 0.2297 2.0952 4.0581 2.2348 -0.5176 2.4162 1.9087 -2.2521 -1.4128 2.0226 0.0579 -1.1747 2.4634 1.3359 4.3888 3.2438 -2.6944 2.8947 1.6688 -0.8961 -1.8915 0.8098 -0.2566 -2.2010 -0.1395 0.8228 -2.7491 -1.4511 0.4796 -3.2597 -2.7113 1.5581
4.1748 4.7626 -3.9016 -4.0526 -3.5644 1.4278 -3.9916 -1.5981 2.9795 0.4472 -3.2439 1.8235 -0.9841 -3.6551 1.5900 1.8643 -1.5097 1.1849 0.9039 -2.4744 0.6813 -1.8345 -2.9134 2.5414 2.0535 -0.3945 0.2304 -2.9656 -1.0776 -1.8218 -1.0900 1.7644 1.7692 3.2411 0.1811 0.0327 -2.3074 0.0950 -1.8152 -3.2746 -1.7841 -0.5918 3.1064 3.5583 -1.5931 4.4790 2.1040 -2.9577 -1.8047 0.4657 1.8742 2.9068 2.4527 -0.6784 4.2748 1.0759 -2.1147 -1.2467 1.8269 -0.4746 -0.8225 2.4234 0.6865 3.8685 3.3932 -2.6871 3.4479 1.2405 -0.9204 -1.9009 0.6578 -0.5407 -2.2052 -0.0633 0.7057 -2.9263 -1.3315 0.6322 -3.3615 -2.3915 1.9379
4.0401 4.9636 -3.5215 -4.0805 -3.2263 1.9270 -4.1186 -0.9581 2.9912 0.2811 -2.6840 2.1908 -1.0671 -3.3252 2.4157 1.8259 -2.0849 0.5377 0.4355 -2.4230 0.7703 -1.9535 -2.3323 3.0555 1.9653 -0.8749 -0.3075 -2.6943 -1.5374 -1.6965 -0.8190 1.8960 1.3333 3.0954 -0.1658 -0.3351 -1.9479 -0.4360 -1.8913 -3.1466 -1.9265 -0.3729 3.5042 2.2162 -3.2074 3.7427 3.4526 -1.1402 -1.6843 0.7309 1.6541 3.2772 1.0182 -2.4232 3.5143 2.3409 -0.4184 -0.8313 1.4729 -0.8765 -0.4148 2.2695 0.1607 3.7358 3.3870 -2.5905 3.2599 1.0590 -1.0742 -1.5951 0.3781 -0.7430 -2.0530 -0.0159 0.5994 -2.8561 -1.2281 0.7462 -3.4153 -1.9663 2.2162
3.1516 4.7111 -3.7264 -3.4186 -3.6145 0.4304 -4.2007 -1.7900 1.9524 0.4473 -3.3401 2.2629 -0.9284 -3.8621 1.9329 2.0966 -1.9827 1.3220 1.1401 -3.0350 1.0252 -1.9180 -2.8564 2.3646 2.1223 -0.9495 0.2585 -2.0690 -0.5534 -2.1537 -1.1228 1.7833 2.1023 2.8934 0.1376 0.3281 -1.5733 0.6592 -1.8516 -2.4968 -1.4793 -1.1218 3.8590 3.3270 -1.3747 2.2391 2.2025 -2.7763 -1.6873 0.4259 1.8805 3.7584 2.2241 -0.4361 2.1553 1.1803 -1.9073 -0.9461 2.2212 -0.0961 -0.7753 2.6426 1.1973 3.1252 3.3185 -2.5006 2.9362 1.1787 -0.6680 -1.4333 1.0247 -0.4544 -1.8342 0.0712 0.5932 -2.3986 -1.2185 0.2007 -3.1221 -2.4261 1.2160
2.4283 4.9028 -3.2268 -3.4447 -3.5502 0.9169 -3.8394 -1.6599 2.5132 0.8279 -3.3243 2.1630 -0.5505 -3.5249 1.5855 2.7029 -2.1296 1.4217 1.7600 -3.1735 1.0594 -1.4865 -2.6547 2.3204 2.4321 -0.8710 0.6852 -2.5172 -0.7441 -2.1079 -1.1215 2.0365 1.7405 3.3127 -0.3085 -0.1455 -1.9943 0.4895 -1.9961 -2.8009 -1.5586 -0.9401 2.2883 3.2136 -0.9789 3.2854 2.2131 -2.9426 -1.6837 0.6607 1.7293 2.5108 1.9664 -0.2764 3.4748 1.0528 -2.2887 -1.2017 2.2356 -0.4993 -0.8987 2.7970 0.7159 2.6643 3.3350 -2.2625 3.0632 0.8999 -0.8933 -1.7040 1.0041 -0.6707 -1.9732 0.1706 0.5122 -2.5493 -1.1584 0.3253 -2.9851 -2.3197 1.5402
2.9654 4.9815 -3.0427 -3.7974 -2.3627 2.8264 -3.1684 0.0031 3.3655 0.5988 -2.8293 2.1501 -0.8374 -3.0255 2.5653 2.0263 -2.6645 0.3041 0.7069 -3.0984 0.7265 -1.3184 -1.7682 3.1705 1.9792 -1.3487 -0.3778 -3.1413 -1.6581 -1.2986 -0.3252 2.0389 0.4016 3.0681 -0.5949 -0.5427 -2.3896 -0.7154 -1.8936 -3.2619 -1.7351 0.1459 2.6615 2.1819 -3.0359 3.3879 3.1352 -0.9326 -1.1003 1.0226 1.1591 2.7050 0.8724 -2.4163 3.4072 1.9195 -0.3576 -0.9491 1.2234 -1.6008 -0.2613 2.1709 -0.8853 2.9925 3.2713 -2.3228 3.0360 0.7260 -1.1160 -1.6860 0.2418 -1.0604 -1.7867 0.1476 0.4048 -2.6275 -0.8931 0.9903 -2.8843 -1.2422 2.6732
2.5725 4.6437 -3.6198 -3.4426 -3.6026 -0.0790 -4.4286 -1.8094 1.3642 0.1461 -2.9337 2.3352 -1.0260 -3.6764 1.7432 2.0664 -1.7332 1.7415 1.1422 -2.7597 1.2927 -2.2593 -2.9507 2.1011 2.0337 -0.5466 0.8543 -1.3449 -0.5941 -2.1968 -1.4005 1.6685 2.2034 3.1200 -0.0383 0.2678 -0.8657 0.5810 -1.7523 -2.0887 -1.4903 -1.3295 2.8334 1.9262 -2.9131 2.9358 3.4835 -1.0622 -1.9926 0.3639 1.8090 2.9689 0.8406 -1.9604 3.0577 2.4729 -0.1834 -0.6235 2.0969 0.1359 -0.7634 2.4991 1.4405 2.8021 3.1973 -2.4790 3.0468 1.0825 -0.6351 -1.0862 0.9415 -0.3642 -1.8176 0.0217 0.5215 -2.3279 -1.2327 -0.0254 -3.2579 -2.4512 0.7897
2.5863 4.6990 -3.5624 -3.5553 -3.5603 0.1017 -4.4079 -1.7047 1.5517 0.1781 -2.9557 2.3354 -1.0398 -3.6568 1.7865 2.0948 -1.7810 1.6828 1.1189 -2.7640 1.2460 -2.2333 -2.8921 2.1952 2.0611 -0.5661 0.8342 -1.4840 -0.6742 -2.2019 -1.2665 1.7174 2.1245 3.1290 -0.0964 0.1851 -0.9530 0.4996 -1.8169 -2.2054 -1.5254 -1.2723 2.7624 1.9554 -2.9312 3.0181 3.4620 -1.0530 -1.9067 0.4160 1.8004 2.9000 0.8425 -2.0112 3.1416 2.4262 -0.2042 -0.5840 2.0651 0.0091 -0.6499 2.5097 1.3059 2.8053 3.2158 -2.4677 3.0525 1.0487 -0.6864 -1.0957 0.9062 -0.4313 -1.8041 0.0315 0.5170 -2.3726 -1.2239 0.0336 -3.2899 -2.3944 0.9294
4.5991 3.6576 -4.9865 -3.8786 -3.4025 0.9114 -3.2449 -3.0120 3.3049 0.4744 -1.7144 1.7077 -0.3345 -2.7593 2.4393 2.7368 -1.1042 1.7316 1.8240 -2.2094 1.4921 -1.3899 -3.2515 1.5300 3.2522 -0.4931 0.4791 -3.1194 1.1715 2.5840 -2.1765 -0.2890 -2.0513 2.9742 0.7723 0.1546 -2.8653 1.8277 1.4380 -3.1697 -0.2788 2.6381 3.4583 1.5701 -3.4856 4.4269 3.3529 -2.1669 -2.4502 -1.1088 -0.8425 3.0900 0.9044 -2.2519 4.1034 2.7184 -1.0257 -2.3830 1.6579 -0.9420 -2.1483 1.0040 -2.1259 4.0986 2.7507 -3.4466 3.4130 1.4292 -1.0504 -2.6393 1.0568 0.2295 -2.6804 -0.4125 0.2837 -2.9611 -1.0659 1.5605 -3.0098 -2.7721 1.8906
2.6821 4.7230 -3.5578 -3.3512 -3.5837 -0.2925 -4.4626 -1.8876 1.1773 0.0857 -2.9433 2.2302 -1.0671 -3.7414 1.6728 2.0383 -1.8170 1.5984 1.1247 -2.8796 1.2175 -2.3179 -3.0267 1.9899 2.0246 -0.7097 0.6139 -1.1378 -0.4490 -2.0874 -1.6546 1.6343 2.3715 3.1196 -0.0423 0.2431 -0.7358 0.7197 -1.5579 -1.9203 -1.4034 -1.3219 2.8642 3.4707 -1.0392 2.9973 1.9757 -2.9390 -2.1658 0.3291 1.8780 2.9774 2.3167 -0.1684 3.0970 0.9084 -2.1264 -0.6889 2.1548 0.4071 -0.9612 2.5030 1.7063 2.8649 3.3060 -2.3727 3.0621 1.0684 -0.6735 -1.0802 1.0135 -0.1791 -1.8635 0.0416 0.6007 -2.2854 -1.2029 -0.0371 -3.2455 -2.4783 0.6461
8.6209 2.3092 -4.0964 -2.7368 -4.1334 0.7473 -1.9459 -3.7045 3.0869 -0.1213 -0.1299 1.2233 -0.2330 -1.4148 2.0074 1.2981 1.1743 -0.1020 1.2229 -0.0436 0.6836 -0.8586 -2.4320 1.1390 2.5197 1.1859 -0.9406 -4.7262 -0.5207 3.4279 -4.1965 -0.3511 -1.4906 3.4204 2.1694 -0.8862 -5.2378 0.2677 2.4662 -3.8096 -1.6034 3.1181 5.8285 2.2296 -3.7659 7.0945 2.2404 -1.7033 -3.5731 -1.2758 -0.5082 4.6126 2.1953 -2.9786 5.9630 2.1868 -0.9779 -5.3420 0.7720 0.0874 -5.0294 0.6086 -1.2392 7.0236 2.2584 -3.1532 4.6545 2.1580 -1.6299 -4.8584 0.0200 1.0874 -3.9220 -1.0707 0.7734 -3.4006 -1.8914 1.8636 -2.2673 -3.2041 1.7607

>  <OB_ATOM_TYPES> (1ydtA1)
Br O.2 O.2 C.3 C.3 C.3 N.3 N.3 C.2 C.ar C.ar C.2 C.ar C.ar C.ar C.ar C.ar C.ar C.ar C.ar N.ar C.ar C.ar C.ar C.ar C.ar S.O2

>  <ENSEMBLE_RMSD> (1ydtA1)
0.000 1.007 1.414 2.020 2.110 2.145 2.253 2.314 2.387 2.397 2.445 2.445 2.451 2.463 2.535 2.543 2.550 2.554 2.611 2.629 2.629 2.658 2.670 2.680 2.683 2.689 2.707 2.716 2.749 2.759 2.780 2.789 2.797 2.807 2.820 2.820 2.839 2.840 2.846 2.859 2.935 2.938 2.999 3.004 3.004 3.030 3.037 3.094 3.115 3.288

$$$$
