
 OpenBabel03071213D

 29 31  0  0  0  0  0  0  0  0999 V2000
   -8.9230   44.4930   20.2310 O   0  0  0  0  0
  -10.8020   43.6590   19.4680 O   0  0  0  0  0
   -4.0060   34.9580   15.8000 N   0  0  0  0  0
   -8.7980   42.6710   18.7040 C   0  0  0  0  0
   -9.5480   41.8890   17.7320 N   0  0  0  0  0
  -10.1870   39.7640   17.1580 N   0  0  0  0  0
  -12.6920   35.8270   18.3990 C   0  0  0  0  0
  -13.8940   42.5270   15.7650 C   0  0  0  0  0
  -13.5670   36.7070   17.7870 C   0  0  0  0  0
  -11.4720   36.2840   18.8470 C   0  0  0  0  0
  -13.4270   41.4020   15.1020 C   0  0  0  0  0
  -13.6540   42.7010   17.1140 C   0  0  0  0  0
   -7.2560   38.2220   17.4790 C   0  0  0  0  0
   -6.4200   39.1790   15.4720 C   0  0  0  0  0
   -6.4310   37.1250   17.2950 C   0  0  0  0  0
   -5.5960   38.0830   15.2910 C   0  0  0  0  0
  -13.2130   38.0430   17.6180 C   0  0  0  0  0
  -11.1260   37.6090   18.6800 C   0  0  0  0  0
  -12.7060   40.4490   15.7790 C   0  0  0  0  0
  -12.9320   41.7480   17.8050 C   0  0  0  0  0
   -8.1020   40.4520   16.7530 N   0  0  0  0  0
   -4.6970   35.8720   15.9680 C   0  0  0  0  0
  -11.5100   39.7830   17.7770 C   0  0  0  0  0
   -9.5590   43.6100   19.6140 C   0  0  0  0  0
   -9.2360   40.6660   17.3360 C   0  0  0  0  0
   -7.2430   39.2550   16.5650 C   0  0  0  0  0
   -5.5980   37.0630   16.1940 C   0  0  0  0  0
  -11.9820   38.5000   18.0620 C   0  0  0  0  0
  -12.4370   40.6120   17.1420 C   0  0  0  0  0
  1 24  1  0  0  0
  2 24  2  0  0  0
  3 22  3  0  0  0
  4  5  1  0  0  0
  4 24  1  0  0  0
  5 25  1  0  0  0
  6 23  1  0  0  0
  6 25  1  0  0  0
  7  9  1  0  0  0
  7 10  2  0  0  0
  8 11  2  0  0  0
  8 12  1  0  0  0
  9 17  2  0  0  0
 10 18  1  0  0  0
 11 19  1  0  0  0
 12 20  2  0  0  0
 13 15  2  0  0  0
 13 26  1  0  0  0
 14 16  1  0  0  0
 14 26  2  0  0  0
 15 27  1  0  0  0
 16 27  2  0  0  0
 17 28  1  0  0  0
 18 28  2  0  0  0
 19 29  2  0  0  0
 20 29  1  0  0  0
 21 25  2  0  0  0
 21 26  1  0  0  0
 22 27  1  0  0  0
 23 28  1  0  0  0
 23 29  1  0  0  0
M  END
>  <MOLID> (2cgrB1)
2cgrB1

>  <SMILES_CANONICAL> (2cgrB1)
N#Cc1ccc(cc1)/N=C(\N[C@H](c1ccccc1)c1ccccc1)/NCC(=O)O	

>  <FINGERPRINT> (2cgrB1)
0000000000000001000000000101001000000000000000000000100000000000000000000000000000000001000000000000000000000001000011100000000000000000000000000000000010100000000000000000000000000000000000000000000000000000000000000100010000000111000000000011000000000000000000000000000000000000010000000000000010001000000010000101001000011001001000000000000000000100010001010000000010100000001000000000010000000000100010100000000001001000000000000000000000001000000000000000000000000000110000000000000000011000000000000000100000100000010000000100100000000000000000100000000000000000000000000000000110000000000000000100000000000000000000000000000000000000010000000000000000000001000000000000100000000001100010100000000000100010000000000000010000010000000000000100000000000000000100000000000000001000000000000000000010101000000000000000000000000000010000000000000000000000000000001101000000000000000010000000000000000000000000000000000110010000000000001000011000000100000000100000000000000100010000000000000010000000000000000000011000000000

>  <MACCS166> (2cgrB1)
000000000000000000000000100000000000000010101000010001000000000000000000000111000000000001000010001000010100000000000010001010000011101101110100110000101111111010111000

>  <OB_MW> (2cgrB1)
384.159

>  <OB_logP> (2cgrB1)
4.38098

>  <OB_PSA> (2cgrB1)
97.51

>  <OB_MR> (2cgrB1)
111.136

>  <OB_ATOMIC_CHARGES> (2cgrB1)
-0.2416230361 -0.2416230361 -0.1908306495 0.3327286813 -0.0792972923 -0.0862950835 -1.70136e-05 -1.70136e-05 -0.0002032701 -0.0002032701 -0.0002032701 -0.0002032701 0.037791818 0.037791818 0.013289417 0.013289417 -0.0005968863 -0.0005968863 -0.0005968863 -0.0005968863 -0.0662904598 0.100415658 0.2253353325 0.4081884403 0.460158149 0.1589983461 0.0686382376 0.0212844475 0.0212844475

>  <MCT_HBD> (2cgrB1)
3

>  <MCT_HBA> (2cgrB1)
6

>  <ENSEMBLE_TOTAL> (2cgrB1)
50

>  <ENSEMBLE_COORDS> (2cgrB1)
-0.0912 3.3119 3.2709 0.4901 5.3423 2.3968 4.7288 -4.8305 -2.2130 1.5092 3.3273 1.5537 0.7427 2.6731 0.5072 -0.0848 0.7786 -0.5322 -1.8099 -3.6176 1.2651 -4.8098 2.1324 -1.8705 -1.6408 -3.2756 -0.1351 -1.7856 -2.6507 2.1977 -3.9680 1.3637 -2.5829 -4.5009 2.4522 -0.4892 2.4346 -1.6538 0.5930 2.9915 -0.3753 -1.3830 3.0124 -2.7536 0.0774 3.5788 -1.5713 -1.9587 -1.4913 -1.9900 -0.5038 -1.6375 -1.2640 1.7990 -2.7729 0.8253 -1.9613 -3.3884 1.9617 0.0853 2.0817 0.7196 0.5265 4.2205 -3.8787 -1.7798 -1.3596 0.5021 0.1064 0.5797 4.1227 2.4131 0.9652 1.3291 0.2011 2.4018 -0.4162 -0.1702 3.6040 -2.7147 -1.2496 -1.4996 -0.9320 0.5013 -2.5007 1.0820 -0.6654
2.1217 2.6274 3.0562 0.8219 4.4857 3.2677 5.7217 -4.0979 -2.1152 1.0459 3.4196 1.1190 0.1814 2.2721 0.9146 -0.3101 0.3755 -0.3379 -2.8360 -3.4691 1.7520 -4.5162 2.1758 -2.4930 -2.4976 -3.3379 0.3470 -2.7608 -2.4005 2.5646 -3.6608 1.2695 -2.9982 -4.4676 2.5096 -1.0817 2.6427 -1.4318 0.4316 2.9883 -0.1248 -1.5761 3.4232 -2.4201 -0.0411 3.8202 -1.1971 -2.0925 -2.1108 -2.1476 -0.1449 -2.3592 -1.1122 2.0299 -2.6912 0.6240 -2.1319 -3.5633 1.9191 -0.2809 1.9608 0.8541 0.3340 4.9701 -3.2843 -1.7701 -1.6746 0.3494 0.1627 1.2820 3.5809 2.5871 0.6790 1.1293 0.2929 2.4117 -0.2316 -0.3625 4.0592 -2.2862 -1.3402 -2.0434 -0.9811 0.7266 -2.6383 0.9299 -0.8196
-0.1220 4.1487 2.2962 -0.1619 5.4679 0.4333 5.3248 -4.9056 -1.2542 1.2509 3.5157 0.5144 0.5447 2.5446 -0.2963 -0.1753 0.3921 -0.6596 -2.3563 -4.0558 0.1310 -4.5250 2.8947 0.1320 -2.4704 -3.2344 -1.0589 -1.9104 -3.5175 1.2794 -4.1677 2.2787 -1.0090 -3.8000 2.6237 1.3599 2.5054 -1.5012 0.6736 3.2585 -0.5210 -1.4066 3.2089 -2.6241 0.4301 3.9944 -1.7391 -1.6828 -2.1219 -1.9366 -1.0162 -1.5382 -2.1152 1.3267 -3.0694 1.3288 -1.0066 -2.7842 1.7430 1.3615 2.0665 0.8057 0.1588 4.7230 -3.9351 -1.0451 -1.2612 0.0980 0.2623 0.2439 4.4854 1.0367 0.8804 1.1972 -0.2359 2.5128 -0.4064 -0.2897 3.9875 -2.7479 -0.7935 -1.6387 -1.3452 0.2260 -2.3992 1.0611 0.1326
2.7549 4.0268 1.1723 0.9392 3.4648 2.4331 5.9340 -4.1571 -0.3605 0.7576 3.6716 0.0223 -0.0525 2.4722 -0.0646 -0.4712 0.2895 -0.7118 -2.7533 -4.1088 0.3563 -4.6381 3.0062 -0.3520 -2.8846 -3.3684 -0.8847 -2.2331 -3.5121 1.4429 -4.1925 2.3517 -1.4389 -4.1672 2.6249 0.9665 2.2159 -1.2213 0.4164 3.2790 -0.2735 -1.5377 3.0676 -2.2620 0.4122 4.2064 -1.3896 -1.5363 -2.4883 -2.0851 -0.9488 -1.8181 -2.1220 1.3772 -3.2110 1.2921 -1.2964 -3.2693 1.6331 1.1005 1.7922 1.0367 -0.2580 5.1192 -3.3369 -0.4627 -1.5973 0.0249 0.1765 1.4519 3.6984 1.3494 0.5005 1.2273 -0.3551 2.3186 -0.1762 -0.5958 4.1299 -2.3278 -0.5758 -1.9399 -1.4260 0.2302 -2.7504 0.9465 -0.0766
-0.3015 4.2840 3.1390 0.2634 4.8697 1.0072 5.3600 -4.0358 -3.0297 1.2200 2.9028 2.0185 0.4164 1.7492 1.6633 -0.0654 -0.1007 0.3294 -3.3955 -3.5835 1.7352 -3.4448 2.4699 -2.3949 -2.7524 -3.4704 0.4395 -3.3860 -2.5411 2.5842 -2.6743 1.4455 -2.8019 -3.6153 2.7307 -0.9776 3.0609 -1.5139 0.3558 2.8905 -0.1043 -1.6068 3.7075 -2.4625 -0.3450 3.5836 -1.1311 -2.3643 -2.1479 -2.3228 0.0852 -2.7344 -1.3015 2.2013 -2.0097 0.6045 -1.8235 -2.9970 1.9543 -0.0709 2.1944 0.7121 0.5245 4.7421 -3.2364 -2.4588 -1.4818 0.0881 0.5890 0.3474 4.1129 1.9625 0.9128 0.7748 0.8032 2.6128 -0.2931 -0.3022 3.9938 -2.2582 -1.7551 -2.1395 -1.1863 0.9981 -2.1600 0.8431 -0.5052
2.4415 3.8066 2.5011 0.2500 3.4306 3.0065 5.6251 -4.4886 -1.0380 0.9915 3.4979 0.6992 0.1019 2.4047 0.3561 -0.4171 0.3159 -0.5126 -2.5010 -3.9362 0.9755 -4.5566 2.8589 -1.5281 -2.5460 -3.4106 -0.3756 -2.2489 -3.1130 2.0084 -3.9556 1.9485 -2.3141 -4.2957 2.8675 -0.1002 3.7940 -0.0435 -1.1796 1.9965 -1.3622 -0.2594 4.5954 -1.1218 -1.2443 2.8285 -2.5414 -0.4009 -2.3132 -2.1054 -0.5973 -1.9943 -1.7031 1.7682 -3.0158 1.0053 -1.7396 -3.4354 1.9829 0.4351 1.8856 1.0554 -0.3373 4.9345 -3.5598 -0.9518 -1.6651 0.2182 0.2380 1.1477 3.5508 2.1869 0.5954 1.2120 -0.1663 2.4255 -0.1548 -0.6790 4.0913 -2.4246 -0.8474 -2.0110 -1.2104 0.5142 -2.7485 1.0202 -0.4176
1.8764 4.9460 1.9349 -0.0613 4.1913 2.8678 5.8680 -4.2612 -1.8896 0.6975 3.3267 0.7343 0.2187 1.9965 1.0721 -0.3057 -0.0521 0.0549 -3.1426 -4.0426 1.0259 -3.8660 2.9378 -1.6599 -2.4429 -3.6586 -0.1854 -3.3987 -3.1225 1.9723 -3.2984 1.9255 -2.3394 -3.8330 2.9457 -0.2090 3.6148 -0.0318 -1.4223 2.3337 -1.5179 -0.0186 4.4755 -1.0184 -1.7345 3.2113 -2.6018 -0.4142 -2.0290 -2.3899 -0.3504 -2.9256 -1.7588 1.8060 -2.6015 0.8735 -1.6238 -3.2035 1.9611 0.4558 1.9381 0.8556 -0.0076 5.1459 -3.4038 -1.5894 -1.6788 -0.0178 0.5471 0.7722 4.1594 1.9756 0.6715 0.9044 0.3382 2.4741 -0.2838 -0.5440 4.2597 -2.3598 -1.2201 -2.2416 -1.4001 0.7011 -2.5286 0.8976 -0.2779
0.3512 5.2035 0.5261 -0.2377 4.4467 2.5968 5.9014 -4.3884 -1.9911 1.2605 3.1651 1.2019 0.4575 1.9578 1.1861 -0.1448 0.0679 -0.0349 -3.2673 -3.8755 0.6830 -4.1835 2.8870 -1.1066 -2.8713 -3.2844 -0.5810 -3.0351 -3.2202 1.8338 -4.0428 2.8131 0.2287 -3.3874 2.0330 -1.9675 2.4944 -1.7530 0.1145 3.5635 -0.1680 -1.3625 3.2918 -2.7424 -0.3227 4.4285 -1.2351 -1.8366 -2.2647 -2.0847 -0.6016 -2.3990 -1.9152 1.8089 -3.1133 1.8608 0.8089 -2.5227 1.1559 -1.4307 2.1828 0.6046 0.3885 5.1947 -3.5169 -1.6937 -1.4598 0.0241 0.5949 0.3664 4.3101 1.5442 0.8969 0.8394 0.4858 2.6274 -0.4032 -0.4199 4.3194 -2.4684 -1.3112 -2.0201 -1.3611 0.6407 -2.3867 1.0477 0.0171
1.1484 3.4164 3.5912 2.9380 3.1217 2.2099 5.8063 -4.0074 -1.5796 0.7395 3.4756 1.2779 0.0319 2.2200 1.0908 -0.3792 0.4266 -0.3454 -3.0079 -3.5145 1.6413 -4.5467 2.0695 -2.5916 -3.2879 -2.2831 2.3554 -2.2831 -3.4843 0.5091 -3.8140 1.0241 -3.0142 -4.3880 2.5667 -1.2374 2.2294 -1.3359 0.1620 3.3499 0.1739 -1.3613 3.0336 -2.3488 -0.2013 4.2310 -0.9155 -1.7420 -2.8262 -1.1118 1.8829 -1.8068 -2.2162 -0.0154 -2.8604 0.3978 -2.1176 -3.5059 1.9861 -0.4052 1.8740 1.0283 0.2750 5.0391 -3.1559 -1.3982 -1.7440 0.3048 0.1399 1.7417 3.3072 2.3794 0.5751 1.2023 0.3114 2.3847 -0.0163 -0.4398 4.1022 -2.1199 -1.1571 -2.0671 -1.0665 0.6385 -2.7078 0.8550 -0.8586
1.3558 3.6066 2.8217 1.0141 5.5051 1.6224 6.0011 -4.1936 -1.7476 0.7288 3.3891 0.5332 0.2478 2.0933 0.9716 -0.2689 0.1086 -0.1342 -3.2195 -3.9136 0.8823 -4.4486 2.6255 -1.3994 -2.7292 -3.4483 -0.4014 -3.1162 -3.1253 1.9665 -4.3238 2.6351 -0.0604 -3.5965 1.7672 -2.2007 2.4730 -1.5878 0.2021 3.4037 -0.0957 -1.4555 3.3036 -2.5747 -0.1769 4.3065 -1.1591 -1.8629 -2.1723 -2.2293 -0.5084 -2.5263 -1.8036 1.8478 -3.3467 1.7764 0.5829 -2.6920 0.9713 -1.6051 2.0314 0.7668 0.2677 5.2288 -3.3576 -1.5187 -1.5806 0.0407 0.4985 1.0189 4.2834 1.6993 0.7353 0.9501 0.3466 2.5172 -0.2871 -0.4563 4.2840 -2.3419 -1.2228 -2.0657 -1.3636 0.6601 -2.5639 0.9623 -0.1525
0.1000 5.0364 1.1501 -0.1485 4.1930 3.2557 5.7888 -4.0252 -2.6601 1.2052 3.0373 1.6231 0.4595 1.7937 1.5623 -0.0911 -0.0924 0.2957 -3.6418 -3.5304 1.4698 -3.5315 2.4926 -2.2760 -2.9459 -3.3747 0.2064 -3.5279 -2.5871 2.4211 -3.6710 2.7639 -0.9663 -2.7352 1.3566 -2.7019 2.6423 -1.7055 0.1138 3.3201 -0.0157 -1.4776 3.3566 -2.6432 -0.5329 4.1198 -1.0203 -2.1568 -2.2137 -2.2716 -0.0269 -2.7628 -1.3821 2.1581 -2.9818 1.9521 0.0186 -2.1041 0.5984 -1.7892 2.1998 0.6235 0.5113 5.0452 -3.2403 -2.2381 -1.4905 0.0840 0.6362 0.3005 4.1145 2.1226 0.9164 0.7562 0.7534 2.6047 -0.3332 -0.3797 4.1496 -2.2835 -1.6954 -2.1471 -1.2118 0.9725 -2.2154 0.9147 -0.3699
-0.4364 4.2115 3.1163 0.7245 5.1244 1.3775 5.5309 -4.0753 -2.8697 1.1533 2.8501 2.0626 0.3634 1.9954 1.2008 -0.1009 -0.0059 0.1134 -3.3678 -3.5723 1.6794 -3.7193 2.4414 -2.3308 -2.7568 -3.4512 0.3687 -3.3030 -2.5483 2.5482 -3.7652 2.7544 -1.0238 -2.9409 1.3002 -2.7758 2.8975 -1.6446 0.3443 3.1074 -0.0980 -1.5054 3.5810 -2.5876 -0.3307 3.8406 -1.1163 -2.2353 -2.1339 -2.3125 0.0172 -2.6417 -1.3146 2.1638 -3.0256 1.9582 -0.0624 -2.2628 0.5570 -1.8840 2.1814 0.6399 0.5607 4.8771 -3.2830 -2.3294 -1.4940 0.1088 0.5110 0.4752 4.1824 2.1145 0.8860 0.8400 0.6279 2.6275 -0.3511 -0.2716 4.0861 -2.3098 -1.6656 -2.0823 -1.1893 0.9445 -2.3014 0.8962 -0.4665
1.9332 4.9936 1.7620 -0.3241 4.9315 1.4386 5.7861 -4.6345 -0.8571 1.1400 3.5222 0.1312 0.3350 2.3398 0.3714 -0.2964 0.3027 -0.5259 -2.8567 -4.0411 -0.2026 -4.7426 2.6963 0.2289 -2.6632 -3.1654 -1.3428 -2.5896 -3.5970 1.0381 -4.2287 2.3262 1.4152 -4.1281 2.2321 -1.0010 2.2492 -1.5481 0.1620 3.6036 -0.3253 -1.4170 3.0588 -2.6176 0.0730 4.4838 -1.4776 -1.5134 -2.2022 -1.9154 -1.1613 -2.0851 -2.2490 1.2328 -3.0789 1.4406 1.4628 -3.0596 1.4171 -0.9565 2.0449 0.8272 -0.0842 5.0950 -3.7027 -0.8215 -1.4072 -0.0276 0.3665 0.8011 4.5349 1.1759 0.7644 1.1024 -0.0949 2.5198 -0.3409 -0.6115 4.2390 -2.5725 -0.7720 -1.8767 -1.4369 0.1776 -2.5146 0.9849 0.3260
-0.4502 4.3915 1.7137 1.5203 4.0660 0.6103 5.3104 -3.5157 -3.2887 0.9706 2.7136 2.5272 0.2815 1.5024 2.1219 -0.1186 -0.1572 0.5334 -3.6309 -3.5773 1.6360 -3.2749 2.4571 -2.4359 -2.8578 -3.4864 0.4114 -3.6823 -2.5308 2.4785 -2.5130 1.4071 -2.7910 -3.4954 2.7517 -1.0320 3.0561 -1.5387 0.4644 2.7981 0.1234 -1.2807 3.6931 -2.3689 -0.3809 3.4771 -0.7780 -2.1946 -2.1960 -2.3539 0.1151 -2.9711 -1.3074 2.1573 -1.9188 0.5637 -1.7699 -2.9425 1.9730 -0.0861 2.1240 0.6102 0.9604 4.6845 -2.8182 -2.6043 -1.5473 0.0530 0.6728 0.7340 3.7717 1.4982 0.8283 0.6448 1.1720 2.5735 -0.2472 -0.0049 3.9283 -1.9677 -1.7579 -2.2590 -1.2108 1.0182 -2.1219 0.8293 -0.4640
2.4239 3.0394 2.9692 0.2289 3.3408 3.5164 5.6416 -4.0375 -2.2899 0.9417 3.4318 1.2085 0.1142 2.3436 0.7256 -0.2728 0.2202 -0.1503 -3.1015 -3.4015 1.9424 -4.1539 2.1831 -2.6530 -2.4678 -3.3876 0.6372 -3.2161 -2.2615 2.6458 -3.4186 1.1216 -3.0285 -4.1203 2.6393 -1.2757 2.9940 -0.0572 -1.7535 2.7772 -1.1771 0.3818 3.7614 -1.0537 -2.2313 3.5800 -2.2658 -0.1430 -2.0000 -2.2348 0.1269 -2.7105 -1.0174 2.0945 -2.5801 0.4419 -2.0587 -3.3458 2.0079 -0.3763 1.9777 1.0532 0.1001 4.9350 -3.2100 -1.8865 -1.6585 0.2911 0.2842 1.1187 3.2634 2.6833 0.6764 1.1760 0.2172 2.4658 -0.1223 -0.3968 4.0772 -2.1961 -1.3906 -2.1288 -0.9934 0.8797 -2.5392 0.8627 -0.7786
0.8530 4.7365 1.8574 2.8023 3.8029 2.5805 5.0877 -4.0744 -2.6596 0.7503 2.5548 2.7461 0.0778 2.0844 1.5513 -0.3521 0.5469 -0.1090 -2.4984 -3.6860 1.4095 -4.3884 2.1979 -2.6311 -1.8590 -3.4031 0.1381 -2.8777 -2.6761 2.2118 -3.2815 1.5814 -3.0813 -4.6818 2.2117 -1.2100 3.6519 -0.8023 0.5667 1.9375 -0.7256 -1.1247 4.3428 -1.7203 -0.1337 2.6413 -1.7626 -1.8517 -1.6526 -2.1305 -0.2438 -2.6329 -1.3032 1.8111 -2.3837 0.9296 -2.1456 -3.8418 1.6213 -0.3417 1.8634 0.7274 0.8331 4.5141 -3.2463 -2.0832 -1.7505 0.3772 0.2362 1.5973 3.7360 2.3867 0.5917 1.0452 0.7830 2.3710 -0.3001 0.0791 3.8083 -2.2361 -1.3821 -2.0475 -1.0315 0.6288 -2.6425 0.9452 -0.8218
0.8866 5.2287 1.9597 0.7020 3.9928 3.8713 4.8768 -4.7977 -2.0834 1.5532 2.9974 1.8589 0.4834 2.2954 1.1685 -0.2386 0.7649 -0.4202 -2.0231 -3.6202 1.2300 -4.9268 1.8795 -2.1003 -1.8842 -3.2351 -0.1616 -2.0127 -2.6820 2.1930 -4.8293 2.1947 -0.7967 -3.8414 1.1753 -2.7569 1.7691 -1.3515 -0.7848 3.9260 -0.3400 -0.4422 2.3415 -2.4824 -1.2373 4.5520 -1.5677 -0.8878 -1.7498 -1.9385 -0.4891 -1.8622 -1.2824 1.8396 -3.6630 1.7834 -0.0356 -2.7529 0.8118 -2.0565 2.0654 0.7890 0.3789 4.3840 -3.8128 -1.7174 -1.5456 0.5180 0.1771 0.9761 4.0891 2.6850 0.8295 1.2184 0.3509 2.5832 -0.2088 -0.3937 3.7892 -2.6055 -1.2708 -1.7265 -0.9166 0.5507 -2.6621 1.1026 -0.6291
-0.7068 4.6773 1.2277 1.3481 5.5389 0.7613 5.7638 -4.6618 -1.0291 1.0947 3.1652 1.0572 0.2506 2.2895 0.2607 -0.3126 0.1184 -0.3829 -2.7743 -4.1889 0.0185 -4.1858 3.1956 0.0370 -2.8486 -3.2660 -1.0979 -2.3482 -3.7563 1.2183 -3.7011 2.6120 -1.0730 -3.8986 2.6237 1.3399 3.6706 -0.3426 -1.4093 2.2698 -1.5213 0.1666 4.4989 -1.3982 -1.5115 3.1160 -2.6861 -0.0003 -2.4654 -1.9868 -0.9402 -1.9307 -2.3741 1.3872 -2.8530 1.4412 -0.9618 -3.1108 1.5383 1.4431 2.0024 0.8303 -0.2128 5.0660 -3.7409 -0.9201 -1.4733 -0.1032 0.4797 0.6167 4.5786 0.9592 0.7110 1.0211 -0.0827 2.4923 -0.3998 -0.5473 4.2075 -2.6207 -0.7826 -1.9632 -1.5168 0.3477 -2.5358 0.9334 0.2474
-0.0793 4.3815 0.2068 1.8794 5.1538 1.0586 5.5229 -4.4077 -1.8387 1.0023 3.0852 1.8923 0.1591 2.0400 1.3517 -0.3029 0.2716 -0.0655 -2.5283 -4.1662 0.2100 -4.3768 3.0329 -0.8136 -2.4226 -3.3508 -0.9850 -2.3823 -3.6035 1.4225 -3.6798 2.3469 -1.7362 -4.2374 2.7021 0.5929 3.6291 -0.0801 -0.8787 2.1397 -1.6272 0.2305 4.4049 -1.0919 -1.3114 2.9323 -2.7207 -0.2938 -2.1628 -2.0359 -0.8815 -2.0964 -2.1837 1.5338 -2.7734 1.2934 -1.3221 -3.4043 1.7182 0.9762 1.9713 0.7298 0.6238 4.8622 -3.5295 -1.4655 -1.6151 0.0235 0.5207 1.0041 4.2990 1.0133 0.6834 0.9744 0.6282 2.4390 -0.3491 -0.0768 4.0453 -2.4664 -1.0037 -1.9817 -1.4218 0.4285 -2.6319 0.9823 -0.0174
2.7539 4.0856 1.4762 1.0983 3.8801 3.0324 5.9788 -4.0813 -1.2581 0.6664 3.3641 0.7108 0.2628 1.9893 0.9333 -0.3852 0.0039 -0.1172 -3.2718 -3.9370 1.0040 -4.5145 2.6038 -1.4927 -2.7634 -3.5142 -0.2871 -3.2334 -3.0948 2.0515 -4.3681 2.6744 -0.1578 -3.7081 1.6741 -2.2618 2.1091 -1.2269 -1.4018 3.7382 0.0887 -0.1905 2.9627 -2.2644 -1.4801 4.6741 -1.0135 -0.3112 -2.2565 -2.2784 -0.4375 -2.6872 -1.7600 1.8893 -3.4052 1.8196 0.5112 -2.8158 0.8821 -1.6418 1.6478 1.0664 -0.7451 5.2233 -3.2134 -1.1062 -1.6986 0.0320 0.5002 1.4957 3.7885 1.8809 0.5767 1.0008 0.0114 2.4880 -0.0153 -0.6824 4.3030 -2.1487 -0.9294 -2.2174 -1.3568 0.6935 -2.6536 0.9512 -0.1942
1.9959 4.4393 2.7879 -0.0931 3.9114 3.5356 5.7405 -3.8079 -2.6455 0.6138 3.2634 1.3143 0.2308 1.8785 1.5079 -0.2407 -0.1364 0.4552 -3.6185 -3.5622 1.8241 -3.2342 2.1913 -2.8180 -2.6416 -3.5991 0.7520 -3.9073 -2.3977 2.4309 -2.5760 1.0400 -3.0418 -3.4281 2.6649 -1.4598 3.2051 0.1759 -1.6719 2.4190 -1.4311 -0.0497 4.0386 -0.7343 -2.2101 3.2569 -2.4334 -0.6755 -2.0401 -2.4658 0.3497 -3.2477 -1.1765 2.0062 -2.0541 0.2737 -1.9256 -2.9489 1.9535 -0.4248 1.9121 0.9066 0.1852 4.9939 -3.0292 -2.2174 -1.6738 0.0556 0.5571 0.7666 3.8829 2.6679 0.6835 0.8876 0.6458 2.3643 -0.1720 -0.5313 4.0792 -2.0875 -1.6809 -2.3592 -1.1962 0.9941 -2.2367 0.7047 -0.6616
0.7649 4.4025 2.3569 2.8087 3.6747 1.6528 5.5740 -4.4661 -0.7635 0.9654 3.7698 0.1028 0.1088 2.6002 0.1535 -0.4356 0.5144 -0.6608 -2.3672 -4.0734 0.0118 -4.9599 2.7035 -0.2942 -2.4489 -3.2575 -1.1850 -2.0155 -3.5167 1.1840 -4.4483 2.4985 0.9324 -4.3837 2.0239 -1.4397 2.4032 -1.1512 0.7113 2.9912 -0.4391 -1.5224 3.1644 -2.2551 0.5937 3.8076 -1.6326 -1.6536 -2.1714 -1.9438 -1.1225 -1.7251 -2.0965 1.2537 -3.3038 1.6218 1.1036 -3.3250 1.2101 -1.2803 1.8550 1.0431 -0.0555 4.8140 -3.5907 -0.6996 -1.5378 0.1343 0.2123 1.6324 3.9239 1.4338 0.5856 1.3377 -0.1884 2.2873 -0.2080 -0.3962 3.9063 -2.5019 -0.6319 -1.8022 -1.3315 0.1481 -2.7444 1.0058 0.0429
-0.2466 5.0206 0.8677 1.0090 3.9681 -0.7201 5.9197 -4.1738 -1.9390 0.9328 3.1135 1.5355 0.1788 1.8855 1.3721 -0.2751 -0.1437 0.3120 -3.2547 -4.1226 0.2360 -3.6523 3.3741 -0.4828 -2.7428 -3.3617 -0.8875 -3.2812 -3.5731 1.4630 -3.1384 2.5508 -1.4135 -3.6347 2.9880 0.9159 3.8464 0.0262 -0.8523 2.2366 -1.5999 -0.0927 4.6905 -0.9444 -1.2465 3.1093 -2.6495 -0.5855 -2.2715 -2.1175 -0.6973 -2.7570 -2.2335 1.6711 -2.5120 1.3062 -1.0123 -3.0848 1.8179 1.2853 1.9729 0.7658 0.3764 5.1906 -3.3500 -1.5690 -1.6407 -0.1751 0.8331 0.5790 4.0446 0.4210 0.6928 0.8015 0.6638 2.5491 -0.2993 -0.2625 4.3042 -2.3384 -1.1183 -2.2511 -1.5303 0.6386 -2.4688 0.9502 0.2876
1.1457 5.5042 1.6317 2.6642 4.1150 0.6479 5.4402 -4.3600 -1.5934 0.7305 3.2097 1.7850 0.1861 2.4996 0.6428 -0.3591 0.4873 -0.3468 -2.3869 -4.1342 -0.0214 -4.9035 2.6069 -0.6412 -2.2801 -3.3079 -1.2087 -2.2064 -3.5905 1.1950 -4.6005 2.3570 0.6447 -4.1059 2.0174 -1.7007 2.3472 -1.5385 0.7818 3.0272 -0.1860 -1.1083 3.1019 -2.5665 0.3511 3.8184 -1.3022 -1.5865 -1.9965 -1.9989 -1.0941 -1.9022 -2.1761 1.3186 -3.4802 1.4953 0.9707 -3.0684 1.2172 -1.3985 1.8069 0.7930 0.6807 4.7308 -3.4995 -1.2709 -1.5716 0.0675 0.3354 1.6284 4.2906 1.2719 0.6078 1.2060 0.3527 2.2961 -0.2981 0.0186 3.8752 -2.4410 -0.8737 -1.8046 -1.4010 0.2209 -2.7407 0.9335 -0.0053
1.4079 4.8837 0.9353 2.9080 3.9100 2.3463 5.4555 -4.2634 -1.6542 0.6788 3.0171 2.1863 0.1480 2.4438 0.9650 -0.3460 0.6192 -0.3477 -2.4470 -3.9411 0.5815 -5.0028 2.2962 -1.4457 -2.2031 -3.3566 -0.7242 -2.3272 -3.1884 1.6890 -4.8270 2.2709 -0.1128 -4.0301 1.6627 -2.3168 1.9779 -1.5746 0.2763 3.3676 0.0327 -0.8820 2.6848 -2.5980 -0.2372 4.1483 -1.0692 -1.4125 -1.8761 -2.0565 -0.8304 -1.9962 -1.7808 1.5730 -3.6720 1.5989 0.4522 -2.9593 1.0401 -1.7932 1.8084 0.7843 0.7374 4.7224 -3.3995 -1.4023 -1.6220 0.2465 0.2341 1.7951 3.9551 1.8424 0.6083 1.2310 0.4638 2.3224 -0.1988 -0.0632 3.8434 -2.3350 -1.0753 -1.7961 -1.2247 0.3629 -2.7720 0.9945 -0.3482
1.0916 5.0109 2.6048 2.6555 3.8442 1.4206 5.6803 -3.8116 -2.3074 0.8570 2.6892 2.5505 0.1619 2.1553 1.3949 -0.2936 0.5097 -0.1652 -3.0132 -3.6066 1.3101 -4.5675 1.8779 -2.5491 -3.3395 -2.4427 2.1117 -2.2009 -3.4816 0.2462 -4.5471 2.3265 -1.2819 -3.5740 0.9186 -2.9937 2.1257 -1.7250 0.1675 3.4299 0.1416 -0.6522 2.8885 -2.5926 -0.5235 4.2614 -0.7941 -1.3845 -2.8405 -1.2383 1.7835 -1.6894 -2.1763 -0.1300 -3.5470 1.8319 -0.3540 -2.6393 0.4695 -2.1380 1.8022 0.4998 1.0322 4.9268 -3.0494 -1.8617 -1.6826 0.3189 0.2235 1.6465 3.8795 2.1084 0.6265 1.0088 0.7557 2.3883 -0.2925 0.0849 4.0207 -2.1145 -1.3006 -1.9997 -1.0884 0.6020 -2.6285 0.9314 -0.7549
0.4896 4.1539 0.9974 1.9426 4.7443 2.6367 5.6888 -3.7311 -2.7703 1.1033 2.5021 2.6154 0.2148 1.6959 1.8024 -0.2386 0.3227 -0.0140 -3.2155 -3.5064 1.6276 -4.2340 2.1703 -2.5032 -2.6717 -3.3629 0.2896 -3.1589 -2.4768 2.4902 -4.2723 2.5413 -1.2113 -3.3035 1.1436 -2.9354 2.2001 -1.7796 -0.1070 3.5371 0.1258 -0.7657 2.9462 -2.6015 -0.8669 4.3544 -0.7634 -1.5714 -2.1229 -2.1966 -0.0946 -2.5891 -1.2111 2.0672 -3.3844 1.9130 -0.2510 -2.4799 0.5620 -2.0458 1.9617 0.3477 0.9895 4.9651 -2.9871 -2.2510 -1.6443 0.2723 0.3465 1.2292 3.9049 2.1018 0.7195 0.7587 0.9039 2.4923 -0.3515 -0.0595 4.0883 -2.0815 -1.5999 -2.0966 -1.0642 0.8217 -2.5213 0.9555 -0.6429
1.7129 5.1654 1.9312 -0.4395 4.9958 1.1973 5.6658 -4.7634 -0.9069 1.2604 3.4585 0.4143 0.3568 2.3223 0.4549 -0.2833 0.2944 -0.4840 -2.7811 -4.0420 -0.4234 -4.7339 2.6889 0.2580 -2.5878 -3.1019 -1.5110 -2.6001 -3.6440 0.8481 -4.2346 2.2999 1.4444 -4.0976 2.2556 -0.9719 3.8873 -0.2937 -1.1467 2.1689 -1.5258 0.0132 4.6714 -1.3856 -1.2182 2.9801 -2.7212 -0.1232 -2.1895 -1.8447 -1.2499 -2.1538 -2.2905 1.1284 -3.0797 1.4213 1.4925 -3.0202 1.4529 -0.9271 2.0659 0.8708 -0.1937 5.0064 -3.8126 -0.8140 -1.4088 -0.0402 0.3878 0.7102 4.5856 1.2246 0.7798 1.0993 -0.0678 2.5584 -0.3580 -0.5360 4.1944 -2.6548 -0.6972 -1.9141 -1.4276 0.1213 -2.4947 0.9953 0.3549
2.0732 3.6523 3.2859 -0.1300 4.1658 3.5898 5.5958 -3.7627 -3.0052 0.6039 3.1284 1.5409 0.3222 1.7144 1.6961 -0.1765 0.2030 -0.0135 -3.4323 -2.8736 2.3558 -3.7260 1.5175 -3.3240 -2.6399 -3.1341 1.1688 -3.5688 -1.6149 2.8077 -3.7679 2.3091 -2.2377 -2.9403 0.2975 -3.3002 2.6329 -1.6786 0.1466 3.1647 0.1136 -1.3926 3.3302 -2.5608 -0.5910 3.9090 -0.8407 -2.1951 -2.0399 -2.1198 0.5208 -2.9259 -0.5199 2.1049 -3.0419 1.9338 -1.0377 -2.2690 -0.0504 -2.1886 2.1016 0.5942 0.6843 4.8880 -3.0215 -2.4593 -1.5956 0.3846 0.2345 0.7727 3.7012 2.9101 0.8105 0.8189 0.7549 2.5400 -0.2845 -0.2670 4.0308 -2.1161 -1.7839 -2.1970 -0.7505 0.9958 -2.3245 0.7938 -1.0011
2.7277 4.3047 1.4525 0.7591 3.9081 2.5329 5.7446 -4.4346 -0.5156 0.9145 3.6814 0.1232 0.1013 2.4823 0.1577 -0.4103 0.3743 -0.6377 -2.7642 -4.0445 -0.1277 -4.9548 2.6247 -0.1732 -2.7058 -3.1862 -1.2956 -2.4309 -3.5590 1.0810 -4.5465 2.2514 1.0525 -4.2006 2.2138 -1.3425 3.5421 -0.2432 -1.4209 2.1909 -1.2448 0.3122 4.3879 -1.2908 -1.4098 3.0611 -2.4035 0.2791 -2.3049 -1.9091 -1.1719 -1.9976 -2.1794 1.2146 -3.3658 1.4198 1.2020 -3.1093 1.4410 -1.2040 1.8995 1.0474 -0.2916 5.0267 -3.5227 -0.5223 -1.5212 0.0561 0.2560 1.4191 3.9557 1.5062 0.6055 1.2537 -0.2576 2.3839 -0.2094 -0.5297 4.1407 -2.4148 -0.5221 -1.9187 -1.3814 0.1321 -2.6737 1.0089 0.1201
2.8209 3.6854 2.2680 1.8629 2.1570 3.6636 5.7715 -3.6333 -2.3107 0.5749 3.1836 1.8789 -0.0502 1.9163 1.5451 -0.4490 0.2908 -0.0829 -3.2151 -3.3725 1.9493 -4.0820 2.0423 -3.0212 -2.4690 -3.3800 0.7047 -3.4947 -2.2071 2.5585 -3.3348 0.9511 -3.2649 -4.1599 2.5832 -1.6767 3.3040 0.3796 -1.3116 2.2447 -1.3133 0.0537 4.1485 -0.5296 -1.8326 3.1138 -2.3029 -0.5484 -2.0549 -2.2223 0.1602 -3.0403 -0.9582 1.9752 -2.5928 0.3256 -2.1863 -3.4740 2.0032 -0.6763 1.7939 1.0053 0.4142 4.9995 -2.8602 -1.9200 -1.8663 0.3264 0.2253 1.7897 2.9312 2.7219 0.4941 1.0690 0.5840 2.3054 -0.0217 -0.3283 4.0575 -1.9225 -1.4271 -2.3453 -0.9554 0.8211 -2.6530 0.8288 -0.9371
1.1493 4.8524 1.5311 2.9669 3.7235 2.3176 5.0607 -4.2331 -2.3494 0.7716 2.7549 2.5364 0.0958 2.2614 1.3498 -0.3587 0.6047 -0.1883 -2.4629 -3.7905 1.1654 -4.8281 1.9694 -2.1572 -1.7953 -3.4168 -0.0674 -2.8308 -2.8432 2.0455 -4.8308 2.1964 -0.8318 -3.7419 1.2195 -2.7607 1.8118 -0.9814 -0.9131 3.8325 -0.2921 0.1949 2.4372 -2.0323 -1.4734 4.5231 -1.4057 -0.4261 -1.5481 -2.1224 -0.3332 -2.5470 -1.4482 1.7668 -3.7537 1.6821 -0.0065 -2.7454 0.7400 -1.9954 1.9102 1.0009 0.5726 4.5120 -3.3445 -1.8431 -1.6990 0.3477 0.3067 1.7622 3.8007 2.1250 0.6172 1.2082 0.6007 2.5167 -0.0785 -0.0133 3.8505 -2.2537 -1.2233 -1.9279 -1.0916 0.6248 -2.7481 0.9721 -0.5552
2.4819 3.8937 0.6254 0.7202 5.1827 1.2918 5.5843 -4.2329 -1.8183 1.0331 2.9806 2.2218 0.1382 2.1056 1.4882 -0.3377 0.4931 -0.0973 -2.5713 -4.0345 0.0481 -4.8946 2.5194 -1.0744 -2.1714 -3.2640 -1.1140 -2.6452 -3.4440 1.2538 -4.6951 2.4295 0.2526 -3.9656 1.8846 -1.9905 3.7070 0.0233 -0.5542 2.0078 -1.5731 0.0796 4.5078 -0.9606 -1.0050 2.8359 -2.6265 -0.4727 -1.8677 -1.9608 -0.9852 -2.3201 -2.0357 1.3921 -3.5749 1.6627 0.7676 -2.9177 1.1906 -1.5138 1.8982 0.6993 0.8241 4.9022 -3.3768 -1.4325 -1.6465 0.1444 0.4392 1.3600 4.1435 1.3427 0.6389 1.0500 0.7287 2.3964 -0.2842 0.0152 4.0573 -2.3415 -0.9573 -1.9385 -1.3148 0.3199 -2.7229 1.0462 -0.0755
2.0866 3.9524 -0.5986 0.1990 5.1299 -0.0889 5.8907 -4.2790 -1.2188 0.9291 3.3240 1.3341 0.0867 2.1968 0.9860 -0.3423 0.2130 -0.1371 -2.8044 -4.1366 -0.3728 -4.4220 3.0980 0.2998 -2.7558 -3.1295 -1.4162 -2.4764 -3.8122 0.8901 -3.6545 2.8354 -0.7725 -4.3576 2.2349 1.4647 3.3589 -0.1793 -1.1481 2.4023 -1.4869 0.6493 4.2192 -1.1698 -1.4502 3.2960 -2.5710 0.2953 -2.3747 -1.8737 -1.1233 -2.0670 -2.4556 1.2071 -2.7479 1.7034 -0.7534 -3.5030 1.1968 1.4896 1.9216 0.8336 0.4582 5.1296 -3.4342 -0.9865 -1.5846 -0.1179 0.5534 0.9951 4.2358 0.1524 0.6263 1.0330 0.4447 2.4092 -0.3360 -0.0512 4.1963 -2.4087 -0.6900 -2.0086 -1.5169 0.2425 -2.6477 0.9203 0.3408
-0.0523 5.0439 1.1202 1.2181 4.0260 -0.4785 5.9304 -4.1870 -1.9690 1.0423 3.0676 1.7287 0.2582 1.8749 1.4729 -0.2293 -0.0511 0.2592 -3.2933 -3.9801 -0.0342 -4.2275 3.0021 -0.5215 -2.7320 -3.1782 -1.1043 -3.3387 -3.4925 1.2182 -4.1824 2.6752 0.7820 -3.3194 2.3689 -1.4594 3.9455 0.0139 -0.7265 2.2679 -1.5985 -0.0971 4.7731 -0.9603 -1.1469 3.1264 -2.6480 -0.6162 -2.2241 -1.9631 -0.8369 -2.7763 -2.1848 1.5096 -3.2566 1.6567 1.2419 -2.4523 1.4356 -1.0314 2.0538 0.7466 0.4833 5.2144 -3.3613 -1.5779 -1.5829 -0.1187 0.8069 0.7560 4.0636 0.6519 0.7644 0.8171 0.7195 2.6199 -0.3006 -0.1946 4.3442 -2.3470 -1.1008 -2.2079 -1.4537 0.5305 -2.4394 1.0329 0.3704
1.2948 3.3054 4.4990 -0.1239 4.4816 3.1549 4.9888 -4.4351 -2.4541 1.4467 2.9101 2.2039 0.4498 2.2677 1.3658 -0.1407 0.9982 -0.4826 -2.5142 -2.6634 2.2830 -4.4059 0.6079 -3.2885 -2.9127 -1.3235 2.6715 -1.7571 -2.8488 1.1876 -4.6321 1.3949 -2.2218 -3.1401 -0.0899 -3.4171 1.7667 -1.3031 -0.7806 3.8450 -0.0997 -0.5835 2.3811 -2.3323 -1.3881 4.5219 -1.2246 -1.2052 -2.5254 -0.2661 1.9367 -1.3723 -1.7112 0.3738 -3.6269 1.5118 -1.1812 -2.2025 0.0314 -2.4610 1.9800 0.6453 0.6416 4.4690 -3.4768 -2.0575 -1.5304 0.7614 -0.1084 0.7547 3.6463 3.3035 0.8371 1.2662 0.4774 2.5147 -0.1263 -0.3551 3.8216 -2.3151 -1.5641 -1.7313 -0.4622 0.7300 -2.4565 0.8497 -1.2797
0.4584 5.4975 0.1808 2.4762 4.4968 -0.1931 5.4757 -4.4353 -1.2887 0.8589 3.4571 1.2610 0.1496 2.4791 0.4591 -0.3018 0.3720 -0.3520 -2.6024 -4.1355 -0.6397 -4.6890 2.7175 0.4582 -2.5242 -3.1190 -1.6729 -2.2640 -3.8347 0.6275 -4.1741 2.3703 -0.7337 -4.1391 2.1505 1.6762 3.1882 -0.2139 -0.9320 2.2757 -1.5210 0.8928 3.9628 -1.2411 -1.3239 3.0892 -2.6375 0.4500 -2.1260 -1.8723 -1.3625 -1.8433 -2.4852 0.9615 -3.0983 1.3983 -0.8058 -3.1416 1.2506 1.6129 1.8132 0.8189 0.7214 4.7806 -3.5594 -0.9818 -1.4621 -0.1157 0.3748 1.3742 4.5115 0.3354 0.6243 1.1804 0.3067 2.3126 -0.3517 0.2250 3.9262 -2.4958 -0.5935 -1.7943 -1.5267 0.0159 -2.6056 0.8444 0.3206
0.5628 5.6423 0.5737 2.3552 4.6323 -0.4181 5.4151 -4.4308 -1.4087 1.0620 3.4596 1.2475 0.2640 2.5290 0.4663 -0.3045 0.4496 -0.3471 -2.4567 -4.1233 -0.7083 -4.8252 2.5885 0.4269 -2.4229 -3.0888 -1.7243 -2.1453 -3.8258 0.5654 -4.3760 2.1562 -0.7651 -4.1609 2.1651 1.6480 3.0761 -0.2658 -0.9013 2.3228 -1.5586 1.0080 3.8262 -1.2909 -1.3425 3.1266 -2.6681 0.5256 -2.0776 -1.8317 -1.3944 -1.7831 -2.4647 0.9230 -3.2301 1.2682 -0.8279 -3.1039 1.3357 1.5888 1.7886 0.7634 0.8219 4.7135 -3.5819 -1.0393 -1.4561 -0.0797 0.3633 1.4164 4.6102 0.3639 0.6462 1.1961 0.3477 2.2750 -0.4067 0.3103 3.8655 -2.5369 -0.5924 -1.7512 -1.4957 -0.0125 -2.6225 0.8532 0.3016
1.5791 4.5285 1.8157 2.8013 3.3736 3.3488 5.2474 -4.1284 -2.1894 0.6134 2.5737 2.7447 0.1108 2.3119 1.4086 -0.3719 0.8114 -0.2764 -2.3956 -3.6018 1.1703 -4.7707 1.8133 -2.6040 -1.8663 -3.2584 -0.1361 -2.6438 -2.6359 2.0720 -4.8760 2.1128 -1.2973 -3.6018 1.1066 -3.0940 3.6024 0.0939 -0.5543 1.7839 -1.4361 -0.1290 4.3382 -0.8881 -1.1079 2.5448 -2.4794 -0.7885 -1.6399 -1.9717 -0.4529 -2.3967 -1.2476 1.7312 -3.8280 1.7148 -0.3758 -2.6281 0.7433 -2.2415 1.7860 0.7685 0.8217 4.5930 -3.2709 -1.7608 -1.7328 0.5108 0.1365 1.7888 3.5025 2.6747 0.5723 1.2356 0.6576 2.2616 -0.1786 -0.0449 3.7913 -2.2296 -1.2263 -1.9165 -0.9193 0.5166 -2.7463 1.0448 -0.8194
1.9351 3.4157 4.3363 -0.1792 3.9403 3.6650 4.8259 -4.5426 -2.4257 1.4212 3.0207 2.0959 0.4018 2.2234 1.4314 -0.2203 1.0061 -0.4601 -2.1071 -2.9689 1.9695 -4.5592 1.1676 -3.1692 -1.5215 -2.9333 0.6432 -2.5640 -1.8367 2.5329 -4.7223 1.8245 -2.0072 -3.3403 0.4178 -3.4098 3.8415 -0.1609 -0.6728 1.7339 -1.3188 -0.5560 4.4501 -1.2581 -1.1619 2.3628 -2.4779 -1.1530 -1.4178 -1.7646 -0.0126 -2.4103 -0.5697 1.8412 -3.6956 1.7527 -0.9825 -2.3824 0.3662 -2.4675 2.0208 0.8380 0.4677 4.3150 -3.6038 -1.9733 -1.6080 0.7853 -0.0662 0.9285 3.4838 3.4290 0.7917 1.3012 0.4590 2.4103 -0.1686 -0.3732 3.6794 -2.4624 -1.4217 -1.8233 -0.5213 0.6298 -2.5667 1.0443 -1.1879
3.1417 3.4623 2.5177 1.7701 1.9926 3.5919 5.2251 -4.2289 -1.7718 0.9113 3.4202 1.8184 0.0563 2.3541 1.3150 -0.4621 0.8808 -0.4210 -2.2876 -3.4041 1.4244 -4.9726 1.6572 -2.6965 -2.0448 -3.1361 0.0199 -2.4229 -2.3839 2.2897 -4.9579 2.2033 -1.4677 -3.8705 0.8180 -3.1272 3.6901 0.2020 -0.6974 1.7975 -1.1983 -0.1667 4.4288 -0.8693 -1.0387 2.5626 -2.3477 -0.6068 -1.9142 -1.8688 -0.4083 -2.2911 -1.0146 1.8244 -3.8654 1.9126 -0.5556 -2.8403 0.5819 -2.2965 1.8151 1.1416 0.3766 4.6020 -3.3121 -1.4285 -1.8227 0.6456 0.0481 1.9480 2.8618 2.7527 0.5330 1.4158 0.4008 2.2985 0.0478 -0.2795 3.8363 -2.1950 -1.0096 -2.0184 -0.7573 0.5306 -2.8457 1.1184 -0.9385
2.1895 2.1699 4.0232 -0.0871 2.0964 3.9271 4.9589 -4.3884 -2.3612 1.1988 3.0423 2.1000 0.3152 2.4453 1.1160 -0.2533 0.9449 -0.5595 -2.1379 -2.4777 2.5521 -4.3912 1.4003 -3.3971 -1.6775 -2.7061 1.1950 -2.4592 -1.2352 2.9525 -3.2361 0.7549 -3.6366 -4.7077 1.8413 -2.0512 3.5914 0.0927 -1.2194 1.8756 -1.3088 -0.2566 4.2359 -0.9846 -1.7069 2.5281 -2.4632 -0.8385 -1.5668 -1.6759 0.3373 -2.3149 -0.1205 2.0345 -2.3048 0.5093 -2.5512 -3.8374 1.6271 -1.0487 2.0016 1.0180 0.2967 4.3905 -3.4508 -1.9799 -1.6425 0.8359 -0.1389 0.9903 2.3758 3.4246 0.7539 1.4244 0.2773 2.3524 -0.0651 -0.4645 3.6876 -2.3156 -1.5025 -1.8747 -0.3215 0.7771 -2.5787 0.9348 -1.3009
1.3389 3.0672 4.6129 -0.0655 4.2795 3.2855 4.7803 -4.4749 -2.7471 1.4552 2.6658 2.3231 0.4607 2.1945 1.3739 -0.1787 0.9741 -0.4973 -2.2774 -2.5179 2.5387 -4.4307 0.7724 -3.3021 -1.4887 -2.6977 1.3342 -2.7938 -1.3113 2.8301 -4.6541 1.5323 -2.2154 -3.1916 0.0261 -3.4200 1.7361 -1.1530 -1.0673 3.9009 -0.2615 -0.5085 2.2955 -2.2093 -1.6830 4.5128 -1.4165 -1.1371 -1.2801 -1.6603 0.5049 -2.5435 -0.1859 1.9486 -3.6642 1.5887 -1.1550 -2.2759 0.0766 -2.4363 2.0259 0.7028 0.4976 4.3118 -3.5260 -2.2708 -1.5705 0.8108 -0.0920 0.7889 3.4185 3.4243 0.8360 1.2458 0.4216 2.5594 -0.1159 -0.4584 3.7388 -2.3672 -1.6883 -1.8090 -0.3426 0.8296 -2.5175 0.8850 -1.2464
2.8861 3.6753 2.7922 1.8119 1.8128 3.5493 5.8370 -3.5081 -2.2271 0.8178 3.2181 1.8298 0.0023 2.0815 1.4511 -0.4551 0.0951 0.3580 -3.8020 -3.2355 1.9346 -3.7824 1.5399 -3.2592 -2.9979 -3.3086 0.7295 -3.9587 -2.0594 2.5674 -4.0466 2.1919 -2.1133 -2.7551 0.5154 -3.2892 3.7694 0.4571 -0.4646 1.8977 -1.0076 -0.8795 4.6338 -0.4677 -0.9198 2.8313 -2.0312 -1.3106 -2.4134 -2.2005 0.2424 -3.3208 -0.8639 2.0463 -3.3623 1.8124 -0.8911 -2.1106 0.1745 -2.1594 1.5793 1.2891 -0.1179 5.0739 -2.7258 -1.8371 -1.8944 0.2925 0.3879 1.8586 2.7911 2.8200 0.4467 1.1415 0.5259 2.3346 0.1878 -0.4351 4.1480 -1.7635 -1.3601 -2.5769 -0.9223 0.9254 -2.4522 0.8180 -0.8958
1.0970 1.6824 4.2380 2.9366 1.7094 2.8906 5.5954 -3.6419 -2.4944 0.9337 2.8658 2.2155 0.0445 2.0104 1.4522 -0.4714 0.3562 -0.0969 -3.2008 -2.6142 2.6484 -3.9097 1.5172 -3.5936 -2.6559 -2.9135 1.3378 -3.3565 -1.3367 3.0375 -3.1679 0.3968 -3.5413 -4.0288 2.3611 -2.4188 3.7904 0.1699 -0.1739 1.8782 -0.7624 -1.3131 4.5916 -0.7922 -0.6670 2.7241 -1.8367 -1.7953 -2.3087 -1.9129 0.5102 -2.9603 -0.2563 2.1533 -2.4846 0.0355 -2.3124 -3.3978 2.0251 -1.2796 1.7196 1.3249 -0.0710 4.8955 -2.8310 -2.0476 -1.8952 0.5678 0.0852 1.7769 2.0212 3.1177 0.5023 1.2132 0.4068 2.3671 0.1906 -0.4945 4.0378 -1.8382 -1.5094 -2.4629 -0.5243 0.9308 -2.5904 0.8127 -1.2153
-0.4974 3.3794 3.9018 1.7187 3.9053 3.7784 5.5851 -3.6881 -3.1390 0.9214 1.7981 2.9192 0.3445 1.8433 1.5854 -0.1869 0.3595 -0.1478 -3.5193 -2.3274 2.6208 -3.6099 0.9428 -3.7535 -3.7072 -0.8999 2.8010 -2.6961 -2.7806 1.6593 -2.8391 -0.1388 -3.5444 -3.7630 1.9365 -2.7062 3.7424 0.2651 -1.1091 2.2180 -1.4842 -0.4332 4.5004 -0.6162 -1.7860 2.9886 -2.4217 -1.2270 -3.0650 -0.0287 2.0024 -2.0130 -1.8411 0.7894 -2.1598 -0.3066 -2.2741 -3.1319 1.7816 -1.5285 2.0953 0.7140 0.5335 4.9212 -2.9340 -2.5584 -1.6170 0.5391 0.0402 0.7893 3.1457 3.5489 0.8062 0.9456 0.6309 2.5452 -0.1761 -0.4033 4.1103 -2.0143 -1.8466 -2.1896 -0.5129 0.9426 -2.2914 0.6146 -1.2969
-0.2313 2.0323 4.3791 1.2114 3.7892 4.5196 4.8363 -4.0948 -3.1776 1.3717 2.2844 2.6682 0.3646 2.0038 1.6556 -0.2424 1.0559 -0.3915 -2.4732 -2.0854 2.8729 -3.6608 0.8009 -3.9630 -1.5405 -2.3807 1.8015 -3.1366 -0.9162 2.8826 -2.7441 -0.1478 -3.7021 -4.0161 1.7640 -2.9368 3.8372 -0.2122 -0.5228 1.6610 -1.1145 -1.0381 4.4452 -1.2143 -1.1826 2.3079 -2.1498 -1.8198 -1.3344 -1.4834 0.8217 -2.8814 0.0685 1.8469 -2.0876 -0.1850 -2.4080 -3.4115 1.7265 -1.7356 1.9456 0.6716 0.5668 4.3015 -3.2514 -2.5866 -1.6669 0.8618 -0.1529 0.7691 2.8186 3.9203 0.7370 1.1843 0.5885 2.3793 -0.1428 -0.4416 3.6498 -2.2197 -1.8645 -2.0018 -0.1885 0.8585 -2.3890 0.7249 -1.4587
2.8066 3.1136 2.9770 2.0406 1.1874 3.9278 5.8511 -2.8434 -3.1004 0.5732 2.5724 2.5783 -0.0411 1.3872 2.0109 -0.5249 -0.0264 0.2467 -4.1684 -2.2662 2.7086 -3.1114 1.0721 -3.9249 -3.1755 -2.8090 1.8011 -4.4414 -0.9497 2.6980 -2.5171 -0.0974 -3.6290 -3.3922 2.0284 -2.8698 3.7618 0.2179 -0.0336 1.8991 -0.7056 -1.2599 4.6366 -0.5173 -0.7437 2.8334 -1.5512 -1.9803 -2.5267 -1.9951 0.9509 -3.7104 -0.0647 1.8091 -2.1310 -0.3903 -2.2607 -3.0331 1.7583 -1.6021 1.5985 1.1054 0.3349 5.0873 -2.2138 -2.4946 -1.9277 0.3490 0.1421 1.8570 2.1852 3.2479 0.4149 0.8232 0.8221 2.3268 0.1245 -0.2877 4.1548 -1.4419 -1.7550 -2.7833 -0.5591 0.9661 -2.3579 0.5063 -1.2798
1.1399 2.5829 4.5770 2.8887 2.3717 3.1297 5.7859 -3.1246 -3.1586 0.6624 2.7809 2.2922 0.1102 1.4971 1.9054 -0.3551 0.0516 0.1448 -4.0436 -1.6960 3.0162 -3.3426 0.4761 -3.9269 -3.1239 -2.4114 2.1532 -4.1971 -0.3675 2.8819 -2.4851 -0.5029 -3.5894 -3.7185 1.4782 -2.9479 2.4590 -1.3780 -0.1812 3.0777 0.5482 -1.5050 3.2340 -2.1828 -0.9291 3.9399 -0.3126 -2.2958 -2.4361 -1.7501 1.2059 -3.4371 0.3498 1.8758 -1.9333 -0.5546 -2.2490 -3.1905 1.4442 -1.7119 1.8861 0.8459 0.5218 4.9904 -2.4490 -2.6506 -1.7533 0.4374 0.0664 1.6981 2.5435 3.3450 0.6032 0.8242 0.7925 2.3583 0.0463 -0.4820 4.0320 -1.6237 -2.0072 -2.5858 -0.3066 1.0635 -2.2637 0.3820 -1.3369
1.7760 1.7973 4.2819 2.8485 3.0787 2.7370 5.8872 -2.8852 -3.1103 0.4849 2.6578 2.5049 0.0499 1.3473 2.0590 -0.4341 0.0060 0.2282 -4.0826 -2.2271 2.7902 -3.3021 0.8471 -3.8368 -3.2108 -2.7889 1.7764 -4.2193 -0.8928 2.8901 -2.6753 -0.3003 -3.5221 -3.4851 1.8788 -2.8307 3.1758 0.7055 -1.3861 2.3488 -1.2532 -0.2395 4.0508 -0.0411 -2.0861 3.2450 -2.0673 -1.0356 -2.5367 -1.9789 0.9412 -3.4802 -0.0182 1.9943 -2.1614 -0.4943 -2.1803 -3.0035 1.7001 -1.5880 1.7665 0.9477 0.5070 5.0729 -2.2524 -2.5781 -1.8441 0.3587 0.1718 1.8294 2.5488 3.1579 0.5145 0.7976 0.8689 2.2799 0.0821 -0.4202 4.0868 -1.4838 -1.9064 -2.6649 -0.5312 1.0523 -2.3171 0.4612 -1.2410

>  <OB_ATOM_TYPES> (2cgrB1)
O.co2 O.co2 N.1 C.3 N.pl3 N.pl3 C.ar C.ar C.ar C.ar C.ar C.ar C.ar C.ar C.ar C.ar C.ar C.ar C.ar C.ar N.pl3 C.1 C.3 C.2 C.cat C.ar C.ar C.ar C.ar

>  <ENSEMBLE_RMSD> (2cgrB1)
1.046 1.049 1.073 1.081 1.090 1.131 1.180 1.221 1.232 1.245 1.343 1.356 1.358 1.363 1.396 1.403 1.428 1.428 1.438 1.439 1.457 1.478 1.479 1.487 1.489 1.537 1.542 1.615 1.636 1.647 1.650 1.658 1.660 1.671 1.687 1.751 1.780 1.783 1.785 1.814 1.820 1.829 1.877 1.890 1.911 1.913 2.103 2.169 2.170 2.238

$$$$
