
 OpenBabel03071213D

 30 33  0  0  0  0  0  0  0  0999 V2000
  -26.4650   46.2830  -11.5540 C   0  0  0  0  0
  -19.6290   42.1340  -12.7500 C   0  0  0  0  0
  -23.1810   44.0340  -10.6790 C   0  0  0  0  0
  -13.9720   41.4280  -14.3970 O   0  0  0  0  0
  -12.0220   41.9830  -15.4060 O   0  0  0  0  0
  -25.5100   45.1730   -9.7510 O   0  0  0  0  0
  -16.1250   42.6330  -18.0320 O   0  0  0  0  0
  -18.0910   44.3490  -11.6990 C   0  0  0  0  0
  -19.2540   45.1550  -11.1500 C   0  0  0  0  0
  -21.6730   46.4880  -10.0120 C   0  0  0  0  0
  -23.1430   46.9640   -9.8590 C   0  0  0  0  0
  -18.2840   42.9280  -15.8780 C   0  0  0  0  0
  -22.0670   43.9550  -13.5650 C   0  0  0  0  0
  -13.7450   40.8590  -16.6750 C   0  0  0  0  0
  -15.2480   40.8890  -16.6710 C   0  0  0  0  0
  -19.6090   43.2120  -15.0920 C   0  0  0  0  0
  -23.2140   44.8570  -13.0210 C   0  0  0  0  0
  -17.0020   43.4450  -13.7690 C   0  0  0  0  0
  -15.8150   43.1030  -15.9000 O   0  0  0  0  0
  -17.0210   43.6270  -15.3230 C   0  0  0  0  0
  -18.1920   44.1920  -13.1820 C   0  0  0  0  0
  -20.6460   44.6780  -11.6080 C   0  0  0  0  0
  -21.6360   45.7790  -11.3530 C   0  0  0  0  0
  -20.6780   44.4100  -13.1300 C   0  0  0  0  0
  -23.9250   46.3880  -11.0620 C   0  0  0  0  0
  -13.1960   41.4700  -15.4050 C   0  0  0  0  0
  -25.3060   45.9000  -10.7100 C   0  0  0  0  0
  -15.7850   42.3040  -16.8680 C   0  0  0  0  0
  -19.5160   43.4610  -13.5270 C   0  0  0  0  0
  -23.0010   45.2830  -11.5450 C   0  0  0  0  0
  1 27  1  0  0  0
  2 29  1  0  0  0
  3 30  1  0  0  0
  4 26  1  0  0  0
  5 26  2  0  0  0
  6 27  2  0  0  0
  7 28  2  0  0  0
  8  9  1  0  0  0
  8 21  1  0  0  0
  9 22  1  0  0  0
 10 11  1  0  0  0
 10 23  1  0  0  0
 11 25  1  0  0  0
 12 16  1  0  0  0
 12 20  1  0  0  0
 13 17  1  0  0  0
 13 24  1  0  0  0
 14 15  1  0  0  0
 14 26  1  0  0  0
 15 28  1  0  0  0
 16 29  1  0  0  0
 17 30  1  0  0  0
 18 20  1  0  0  0
 18 21  1  0  0  0
 19 20  1  0  0  0
 19 28  1  0  0  0
 21 29  1  0  0  0
 22 23  1  0  0  0
 22 24  1  0  0  0
 23 30  1  0  0  0
 24 29  1  0  0  0
 25 27  1  0  0  0
 25 30  1  0  0  0
M  END
>  <MOLID> (2dblB1)
2dblB1

>  <SMILES_CANONICAL> (2dblB1)
O=C(O[C@H]1CC[C@]2([C@H](C1)CC[C@@H]1[C@@H]2CC[C@]2([C@H]1CC[C@@H]2C(=O)C)C)C)CCC(=O)O	

>  <FINGERPRINT> (2dblB1)
0000000000000101000000000100000000000001000000000000000000000000000000000000000000000001000000000000000000000001000000110000000000000000001010000000000000000000000000000000000000000000000000000000000000000000000000000000000000000000000000000000000000000000000000000000000000000000000000000000000000000000000000000000000000000000000000000000000000000000010000000000000010010000000000000000010000000000100000000000100000000000100000000000000000000000000000000000000000000000000000000000000000001000000100000000100000000000100000100000000000000000000000000000000000000001000000000001001001000000001000000000000000000000000000000000000000000001000000000000000000000000001000000000000000000000000010100000000000000001000000000000000000000000000000000000000000000000000100000000000000000000000001000000000000000000000000000000000000000000000000000000000000000000000000000000000000000000000000000000000000000000000000000000001000000010000000010000000000000000000000100000000000000010000000000000000000000000000000000000000000000000

>  <MACCS166> (2dblB1)
000000000000000000000000000000000000000000000000000000000000000001000000000000000000000001000001000000011001000100110100001001111011000100111010111011010110101100111000

>  <OB_MW> (2dblB1)
418.272

>  <OB_logP> (2dblB1)
5.0109

>  <OB_PSA> (2dblB1)
80.67

>  <OB_MR> (2dblB1)
116.57

>  <OB_ATOMIC_CHARGES> (2dblB1)
0.072229372 3.0793e-06 0.0004197639 -0.2456385047 -0.2456385047 -0.2960597945 -0.2500916704 0.0001197786 1.6786e-06 0.0004424185 0.0073210499 0.043622825 1.15191e-05 0.1256871821 0.1213472143 0.0037020712 0.0004082584 0.0436212868 -0.4522625163 0.168828164 0.0035838397 1.13917e-05 0.0004086643 3.3253e-06 0.0576077708 0.3654342737 0.1506715576 0.3174418803 0.0002349744 0.006527651

>  <MCT_HBD> (2dblB1)
1

>  <MCT_HBA> (2dblB1)
5

>  <ENSEMBLE_TOTAL> (2dblB1)
50

>  <ENSEMBLE_COORDS> (2dblB1)
-6.4118 3.5025 1.5592 -0.7005 -2.1214 0.4510 -3.0594 2.9513 0.4894 7.8692 -1.3331 -3.2934 6.6127 -0.8144 -1.4609 -6.3708 1.4117 2.6944 2.8910 -3.3047 -3.5026 1.2073 -0.1550 1.7435 0.2613 0.9074 2.2559 -2.5240 1.4274 3.8236 -3.9049 2.0378 3.9673 0.7339 -0.6515 -2.4040 -2.8393 -0.1094 0.1797 5.8946 -2.5455 -2.9781 4.8324 -1.9275 -3.8572 -0.5582 -0.8208 -1.6312 -3.8558 0.6531 1.0064 2.1049 -1.1730 -0.3558 3.0490 -1.2094 -2.5430 1.8502 -1.4892 -1.8168 1.0180 -0.3156 0.2539 -1.1816 0.5901 1.9194 -2.0634 1.7255 2.4071 -1.3934 0.2812 0.4451 -4.2725 2.5972 2.6065 6.7964 -1.4655 -2.4779 -5.7425 2.4004 2.3232 3.4901 -2.2609 -3.2857 -0.3999 -0.7411 -0.1156 -3.3333 1.9524 1.5966
-6.8001 2.6176 2.0430 -0.0676 0.8372 -1.2630 -2.4640 3.0788 0.8928 7.5990 -2.6384 -2.2940 6.2740 -1.2769 -1.0293 -5.7206 0.7744 3.0965 2.8901 -1.1554 -4.1489 1.1941 0.3941 1.4785 -0.0075 1.2112 1.9051 -2.2986 1.8980 3.7117 -3.6046 2.6818 3.8252 0.5980 -2.3377 -1.8103 -2.7517 0.3785 -0.3432 5.8732 -1.5041 -3.3957 4.7835 -2.5327 -3.5866 -0.6202 -1.5686 -1.3404 -3.8478 1.0760 0.4363 2.1264 -1.1224 -0.2562 2.9612 -2.3196 -2.1543 1.8687 -1.5299 -1.6914 0.8691 -0.6966 0.4783 -1.2930 0.4232 1.8272 -2.4851 1.0885 2.4526 -1.5786 -0.1753 0.4569 -4.2927 2.6113 2.4596 6.5714 -1.7774 -2.1032 -5.6101 1.8872 2.5883 3.4533 -1.8898 -3.3492 -0.3351 -0.3973 -0.4085 -3.2849 1.9642 1.5221
-6.1391 0.7463 3.5917 -0.0117 -1.6126 0.9681 -3.7735 2.4563 0.1345 7.5906 -3.5619 -2.9021 6.0232 -3.4388 -1.2486 -6.8096 2.1162 1.7656 3.5524 -0.0996 -3.9650 1.3593 1.0845 1.1973 0.2044 1.9744 1.5975 -2.3915 2.1799 3.5579 -3.8549 2.4903 3.8189 0.6897 -1.8013 -1.9717 -2.6767 -0.3865 0.5415 6.0812 -1.7791 -2.9983 4.8539 -2.1167 -3.8147 -0.4985 -1.0506 -1.3996 -3.7513 0.2924 1.3632 2.2368 -0.3669 -0.6347 3.0255 -1.7386 -2.4225 1.9269 -0.9278 -2.0083 1.0414 0.3971 -0.1097 -1.0961 1.1997 1.6882 -2.2152 2.1593 2.0496 -1.3867 0.4077 0.4220 -4.5491 2.4417 2.4724 6.5261 -3.0075 -2.2745 -5.9119 1.7954 2.5427 3.7516 -1.1812 -3.4293 -0.2135 -0.4688 -0.0193 -3.5838 1.7966 1.4872
-7.0780 2.1623 2.1989 -0.0894 1.6718 -0.9712 -2.7419 3.2067 1.2932 7.9728 -2.6359 -3.5609 7.2975 -2.0991 -1.4475 -5.8179 0.3005 2.9848 2.8175 -3.3245 -3.0841 1.0838 0.6294 1.6122 -0.1754 1.2895 2.1360 -2.5828 1.5760 3.8724 -3.9284 2.2768 4.0524 0.8432 -0.7409 -2.4916 -2.7897 0.7604 -0.4024 5.8003 -3.2472 -2.9461 4.8967 -2.2103 -3.5708 -0.4429 -0.6688 -1.6947 -3.9609 1.2272 0.4381 2.1593 -0.3322 -0.4107 3.1899 -1.1510 -2.3962 1.9884 -1.2240 -1.6241 0.8666 -0.2171 0.3732 -1.4213 0.4993 1.8129 -2.6720 0.9819 2.4882 -1.5998 0.1621 0.3376 -4.5859 2.3516 2.6717 7.0784 -2.5877 -2.5450 -5.8210 1.4833 2.6530 3.5273 -2.3338 -2.9805 -0.3119 0.2444 -0.4822 -3.5024 1.9491 1.6833
-6.6241 3.3496 1.2580 -0.8469 -2.2891 0.8961 -2.9721 2.8581 0.2036 7.1968 -0.2883 -4.0074 7.9376 -2.4340 -3.7774 -6.2758 1.4983 2.7152 3.3305 -0.7700 -3.5879 1.0455 -0.2638 2.0645 0.1038 0.8504 2.4633 -2.7141 1.7973 3.7235 -3.8786 2.7663 3.6980 0.5319 -2.0542 -1.8469 -2.9128 -0.2250 0.2873 6.0630 -1.6404 -2.4778 4.9484 -2.4725 -3.0672 -0.5772 -1.1763 -1.3029 -3.9287 0.6909 0.9386 1.9987 -1.4352 0.0607 2.8972 -2.3579 -1.9656 1.8842 -1.5019 -1.4490 0.9114 -0.5234 0.5840 -1.3330 0.5814 2.0556 -2.1529 1.8332 2.3157 -1.4718 0.1192 0.6148 -4.3331 2.8495 2.2505 7.1635 -1.5357 -3.4845 -5.7886 2.4643 2.1324 3.6570 -1.7351 -2.9099 -0.4951 -0.9784 0.2070 -3.3647 2.0228 1.4079
-5.4721 0.6094 3.5745 -0.2105 0.7995 -1.5040 -2.8439 3.1527 0.5690 7.5926 -2.6689 -2.2742 6.2884 -1.2654 -1.0340 -6.7258 2.1786 2.2923 2.9527 -1.0844 -4.1523 0.8755 -0.5223 1.8037 -0.0449 0.4850 2.4587 -2.1797 2.4164 3.4276 -3.5899 2.9539 3.6540 0.6039 -2.2317 -1.9169 -2.7805 0.3032 -0.3092 5.8975 -1.5139 -3.4004 4.7987 -2.5304 -3.6087 -0.5690 -1.6258 -1.1717 -3.9137 0.9190 0.5005 2.1059 -1.1953 -0.2463 2.9707 -2.2982 -2.1864 1.9008 -1.4813 -1.7148 1.0120 -0.3085 0.3141 -1.1360 1.0012 1.5438 -2.3630 1.4019 2.3228 -1.5021 -0.0155 0.4680 -4.3893 2.6293 2.3930 6.5799 -1.7871 -2.0995 -5.6237 1.8282 2.7123 3.4823 -1.8612 -3.3704 -0.3108 -0.3038 -0.4580 -3.4059 2.0154 1.4127
-5.5763 -0.2755 3.0410 0.0242 2.0610 -0.9882 -2.7213 3.1754 1.5019 6.2101 -1.9645 -0.8059 7.6668 -3.0207 -2.2129 -6.7547 1.6195 2.2138 2.4443 -3.0273 -3.5516 1.2672 0.7848 1.3863 -0.0036 1.2822 2.0535 -2.4001 1.2492 3.8405 -3.7870 1.8213 4.1363 0.9381 -0.2026 -2.8067 -2.6601 1.0158 -0.4961 5.2974 -3.4139 -2.3968 4.7945 -2.5190 -3.5056 -0.3480 -0.1565 -2.0114 -3.8461 1.2546 0.4136 2.2829 -0.0975 -0.7235 3.1901 -0.9939 -2.7606 2.0031 -0.8913 -1.9825 1.0131 0.0247 0.0966 -1.2337 0.5079 1.6387 -2.4907 0.8259 2.3955 -1.4393 0.3643 0.1374 -4.4757 2.0423 2.7879 6.5303 -2.7961 -1.8260 -5.6952 1.1658 2.6436 3.3439 -2.2489 -3.2656 -0.1757 0.5782 -0.6890 -3.3986 1.8347 1.7357
-5.3495 0.4424 3.5813 -0.2971 0.6717 -1.4812 -2.8081 3.0594 0.6423 7.7029 -2.9876 -2.7634 6.2553 -2.8356 -1.0063 -6.7501 1.9527 2.3880 3.1103 -0.3390 -3.7625 1.1802 0.8772 1.1217 -0.0705 1.6070 1.5718 -2.2676 2.2594 3.5308 -3.6413 2.9198 3.6633 0.6567 -2.3606 -1.7199 -2.8365 0.2249 -0.2738 5.9727 -1.4241 -2.9405 4.8074 -2.0397 -3.6780 -0.5900 -1.7560 -1.0981 -3.9537 0.8674 0.5224 2.1331 -0.9371 -0.2920 2.9801 -2.0653 -2.2315 1.8352 -1.4162 -1.6947 0.8950 -0.4378 0.4242 -1.2453 0.6774 1.7410 -2.4514 1.2824 2.3963 -1.5811 -0.1476 0.5054 -4.4365 2.5500 2.4087 6.6253 -2.4845 -2.1153 -5.6132 1.6733 2.7638 3.5498 -1.3560 -3.2456 -0.3834 -0.4118 -0.4108 -3.4291 1.9340 1.4528
-6.2845 1.3150 2.7695 -0.9583 -2.2348 0.4048 -2.7617 3.0671 0.4553 7.6077 -0.6290 -3.6371 6.6987 -1.1267 -1.6039 -6.3394 3.3076 1.4662 3.1354 -3.4001 -3.2082 0.9941 -0.5744 2.0021 0.1277 0.5634 2.4967 -2.7027 1.4623 3.7735 -3.8269 2.4752 3.8577 0.8807 -0.6510 -2.1936 -2.8253 0.0278 0.0477 5.9512 -2.2801 -3.5864 4.6235 -1.6589 -3.9581 -0.4820 -0.8377 -1.5613 -3.8279 0.8584 0.8182 2.0039 -1.5063 -0.0994 3.1700 -1.3399 -2.1684 1.8870 -1.6191 -1.6081 0.9426 -0.6104 0.4940 -1.2986 0.4581 1.9905 -2.0714 1.6960 2.4144 -1.3863 0.2292 0.4896 -4.2083 2.8021 2.4258 6.7617 -1.2910 -2.8127 -5.6715 2.5431 2.1602 3.5562 -2.2575 -3.0955 -0.4616 -0.8657 -0.0365 -3.2342 2.0774 1.5029
-6.6963 3.1709 1.6185 0.0913 0.7214 -0.8872 -2.2259 3.0706 1.0700 8.0371 -2.4598 -3.2725 7.0270 -0.5537 -4.0210 -6.0333 1.1863 2.7555 3.3127 -0.9044 -3.3814 0.9020 -0.1577 1.9300 -0.2184 0.8029 2.2681 -2.6041 1.7343 3.7910 -3.7671 2.7250 3.7959 0.4877 -2.3547 -1.7837 -2.7354 0.5135 -0.3867 6.0259 -1.8473 -2.2493 4.9157 -2.6326 -2.9068 -0.7202 -1.5791 -1.2964 -3.8104 1.3322 0.3008 1.8610 -1.6306 0.1700 2.8704 -2.5361 -1.8040 1.7913 -1.7360 -1.3369 0.5827 -1.0889 0.7794 -1.5798 0.2340 1.9440 -2.7416 1.0296 2.4648 -1.7496 -0.2322 0.5046 -4.2923 2.8119 2.3607 7.0551 -1.5271 -3.2833 -5.7020 2.2754 2.2940 3.6301 -1.8911 -2.7316 -0.4366 -0.5422 -0.2158 -3.2772 2.0654 1.5092
-5.8352 0.2208 3.0394 0.0450 1.7813 -0.7355 -2.6182 3.1406 1.1960 7.5393 -3.0889 -3.4284 6.8561 -2.1385 -1.4696 -6.8188 2.0983 1.9531 2.8816 -3.6030 -2.3771 1.1457 0.4421 1.7347 -0.1067 1.0951 2.2884 -2.5847 1.5962 3.8393 -3.9251 2.3208 3.9574 0.9881 -0.5323 -2.4884 -2.7141 0.6215 -0.4137 5.6753 -1.6697 -3.5163 4.5462 -2.6326 -3.8028 -0.3264 -0.4420 -1.7441 -3.8782 1.1691 0.3819 2.2422 -0.4080 -0.3470 3.2341 -1.3249 -2.3328 2.0128 -1.2135 -1.6100 0.9376 -0.2680 0.4127 -1.3870 0.4212 1.8494 -2.6420 0.9619 2.4717 -1.4964 0.1413 0.3580 -4.5234 2.3869 2.5514 6.7227 -2.3194 -2.6710 -5.8160 1.6108 2.4733 3.4697 -2.5974 -2.7562 -0.1994 0.3100 -0.4244 -3.4246 1.9205 1.6106
-7.1337 0.9527 1.6554 0.6272 -1.0913 1.4983 -3.8513 1.8338 -0.2091 5.0844 -3.7430 -4.7155 5.8511 -4.9426 -2.9321 -5.6668 0.1653 3.3570 4.3701 -0.6937 -4.1299 1.3568 1.8510 1.6233 0.0121 2.5373 1.7300 -2.8170 2.4962 3.2670 -4.3145 2.7203 3.2604 1.3994 -0.4349 -1.8923 -2.1386 -0.5297 0.7674 4.1545 -3.2580 -2.6223 4.8442 -1.9935 -2.1600 0.3042 -0.8494 -0.9303 -3.4310 -0.0248 1.3701 2.7532 0.5242 0.0139 3.7424 0.1081 -2.0972 2.7461 -0.3875 -1.1989 1.3688 1.0096 0.3708 -1.1211 1.5307 1.7550 -2.4550 2.2546 1.8137 -1.0618 0.5306 0.6134 -4.8428 2.0011 2.0318 5.1299 -4.0770 -3.4036 -5.8570 0.9603 2.4392 4.2698 -0.8343 -2.9180 0.3172 -0.0911 0.3935 -3.6408 1.4750 1.2490
-6.0129 0.2802 2.9101 -0.1864 1.7029 -1.0066 -2.6324 3.1881 1.4578 7.3349 -4.0396 -2.6634 8.2044 -2.0426 -3.3466 -6.8675 2.4254 2.3267 3.2704 -3.3816 -2.3295 1.0047 0.5397 1.5101 -0.2420 1.1608 2.1020 -2.6058 1.3351 3.9016 -3.9194 2.0714 4.1534 0.6762 -0.6648 -2.6394 -2.8818 0.8716 -0.4193 6.0789 -2.1198 -2.2113 5.0237 -2.0409 -3.2892 -0.5960 -0.5998 -1.8183 -4.0033 1.3814 0.4631 2.0296 -0.3467 -0.5625 3.0119 -1.1026 -2.5983 1.8276 -1.1866 -1.8062 0.7513 -0.2558 0.2457 -1.4986 0.3967 1.7543 -2.7303 0.8726 2.4707 -1.7110 0.1722 0.2613 -4.5258 2.3801 2.7842 7.3192 -2.6936 -2.8129 -5.8885 1.7513 2.6443 3.6859 -2.2820 -2.6665 -0.4311 0.2612 -0.5719 -3.4859 1.9658 1.7564
-6.8032 2.6623 2.1326 0.4794 1.7494 -0.7590 -2.2539 3.1511 2.1534 6.2971 -0.4892 -2.1072 7.7486 -1.8553 -3.2192 -5.9294 0.4484 2.1831 2.7776 -3.9239 -2.2948 1.0251 -0.0637 1.5787 -0.1602 0.6325 2.2203 -2.7507 0.6361 3.7958 -3.9911 1.4626 4.1358 0.9016 -0.5265 -2.7340 -2.3559 1.6544 -0.4147 5.7915 -2.7732 -2.1510 4.7773 -2.9913 -3.2504 -0.3925 -0.1964 -2.0188 -3.5798 1.9826 0.4210 2.0368 -0.8872 -0.5438 2.9916 -1.6433 -2.5993 1.7507 -1.4734 -1.9124 0.7439 -0.5604 0.1732 -1.4653 0.2361 1.5736 -2.7073 0.6726 2.2897 -1.5222 0.4766 0.0720 -4.4087 2.1986 2.8574 6.7264 -1.6868 -2.5719 -5.7276 1.6458 2.3698 3.4079 -2.9379 -2.6501 -0.1650 0.3742 -0.6247 -3.2427 2.0252 1.8948
-7.1261 1.9577 2.4588 -0.3186 1.5772 -1.3238 -2.9011 3.2623 1.2679 7.9973 -2.7235 -3.8929 7.2688 -3.5420 -1.8911 -5.6812 0.1796 3.1056 3.6950 -3.2554 -1.5871 1.0418 1.0050 1.3113 -0.2356 1.5749 1.8921 -2.5192 1.6713 3.8361 -3.8885 2.3036 4.0814 0.6650 -1.0157 -2.5121 -2.9067 0.7817 -0.4095 6.1039 -1.7186 -2.9568 4.8411 -2.3520 -3.4978 -0.5780 -0.8640 -1.6568 -4.0558 1.2190 0.4773 2.0624 -0.1813 -0.6159 3.0365 -1.2442 -2.5148 1.8906 -1.2684 -1.6584 0.8129 -0.0298 0.2276 -1.4117 0.6425 1.7264 -2.6525 1.0528 2.4659 -1.6763 0.2154 0.2879 -4.6253 2.3178 2.7383 7.1591 -2.7691 -2.8303 -5.7934 1.3631 2.8000 3.8052 -2.3635 -2.4173 -0.4366 0.2351 -0.6100 -3.5729 1.9683 1.6979
-5.4767 -0.0232 3.6359 0.6582 -1.0004 1.3640 -3.9831 1.8096 -0.1516 5.7005 -4.4333 -4.1486 5.9624 -4.6855 -1.8954 -6.9925 0.9477 2.0764 4.1653 -0.7793 -4.4174 1.3290 1.9466 1.3798 -0.0226 2.6050 1.5552 -2.7556 2.5364 3.2470 -4.2576 2.7083 3.3375 1.2347 -0.4383 -2.0799 -2.1582 -0.5171 0.7515 4.2504 -3.2279 -2.7632 4.7884 -1.8716 -2.3663 0.2019 -0.8398 -1.0474 -3.4322 -0.0293 1.4048 2.6640 0.6281 -0.2897 3.5441 0.1488 -2.4368 2.6136 -0.3327 -1.4629 1.2901 1.0828 0.1423 -1.1319 1.5767 1.6544 -2.4756 2.2739 1.7784 -1.1116 0.5602 0.5262 -4.8357 1.9753 2.1429 5.3960 -4.1811 -2.8534 -5.8658 0.9597 2.5697 4.1094 -0.8242 -3.1953 0.2679 -0.0400 0.2496 -3.6767 1.4646 1.2923
-5.7544 0.1874 3.4845 0.5758 -1.1275 1.4859 -3.8238 2.0309 -0.1710 5.4096 -5.0798 -2.8266 6.3553 -3.6144 -4.2995 -7.0129 1.1996 1.7337 5.5051 -0.2915 -3.1072 1.3391 1.7671 1.4474 0.0104 2.4318 1.7342 -2.8065 2.4389 3.3449 -4.2851 2.7676 3.3250 1.0759 -0.6751 -1.9881 -2.2857 -0.5322 0.7648 4.2116 -3.1292 -3.3111 4.4575 -2.2154 -2.1340 0.0802 -1.0313 -0.9107 -3.5773 0.0510 1.2933 2.5736 0.4845 -0.3170 3.3190 -0.1423 -2.5162 2.4743 -0.5400 -1.4299 1.2237 0.9225 0.2003 -1.1436 1.4473 1.7937 -2.4420 2.2283 1.8886 -1.1575 0.4712 0.6298 -4.8371 2.1313 2.0630 5.4469 -3.9343 -3.5475 -5.9607 1.1722 2.3696 4.5027 -0.7971 -2.6162 0.1921 -0.1881 0.3522 -3.6661 1.5664 1.2640
-4.4156 -0.3142 3.9233 0.5574 -1.1200 0.1491 -3.4512 2.6925 0.4904 6.5028 -4.3820 -1.2549 4.4209 -4.1124 -0.3593 -6.4357 0.6332 3.0916 4.3912 -0.2756 -3.8742 1.2456 1.8776 0.5459 -0.0189 2.3213 1.2539 -2.1941 2.5046 3.2729 -3.6718 2.6264 3.6407 0.5112 -0.0716 -3.1501 -2.4759 -0.4083 0.1373 5.3727 -2.4010 -1.7685 4.5101 -2.5136 -3.0043 -0.4030 -0.5126 -2.0239 -3.7374 0.2501 0.6934 2.2138 0.7823 -1.4596 2.5992 -1.2003 -2.7444 1.9718 0.0817 -2.7799 0.9348 1.1921 -0.7698 -0.9517 1.1447 1.4206 -2.1815 1.4067 2.2423 -1.2963 0.5447 0.0638 -4.4681 1.8787 2.5671 5.3442 -3.7109 -1.0510 -5.2120 0.7199 3.1830 3.8602 -1.1910 -3.2604 -0.0497 0.0275 -0.6454 -3.4730 1.5295 1.4702
-6.3819 3.1951 2.1907 -0.0530 0.7134 -1.3727 -2.2097 3.0813 0.7785 7.3872 -1.5194 -2.1311 6.5542 0.5036 -1.4801 -5.5783 1.1682 3.1522 3.9070 -2.6592 -4.4210 0.5009 -1.4955 1.5851 -0.3391 -0.5436 2.4148 -1.8576 1.9127 3.5568 -3.1459 2.6783 3.8441 0.2584 -2.1180 -2.5212 -2.7703 0.4421 -0.4168 5.1133 -1.4293 -1.6145 4.1894 -0.9868 -2.7246 -0.8468 -1.6247 -1.6042 -3.7643 1.1843 0.4631 1.7240 -1.9372 -0.5173 2.5722 -2.7422 -2.5809 1.6516 -1.7996 -2.0216 0.7993 -0.9748 0.1950 -1.1132 0.4513 1.5738 -2.2318 1.0893 2.3492 -1.6182 -0.2406 0.3143 -3.8999 2.7720 2.5157 6.4005 -0.6817 -1.7326 -5.3088 2.2652 2.6710 3.5448 -2.1882 -3.3499 -0.4336 -0.5493 -0.6090 -3.0505 2.0329 1.4934
-6.2869 1.7959 2.5198 -1.1042 -2.2136 -0.3084 -2.3345 3.1076 0.9038 6.9693 0.0368 -2.7861 5.3247 0.1215 -1.2070 -5.5788 3.9878 1.9185 3.2687 -3.7539 -2.8689 1.0097 -1.0461 1.5207 0.2236 0.0122 2.2611 -2.6302 0.7082 3.7224 -3.7643 1.6809 3.9901 0.8077 -0.4833 -2.6614 -2.7749 0.2601 -0.1775 5.9120 -1.9816 -2.2308 5.0612 -2.2537 -3.4509 -0.5422 -0.5011 -1.9788 -3.6893 1.0284 0.7560 1.9014 -1.6646 -0.7247 2.9492 -1.4664 -2.8751 1.6846 -1.6372 -2.2268 0.9292 -0.7923 0.0339 -1.2125 0.0968 1.7829 -1.9001 1.2439 2.5023 -1.3237 0.2124 0.2706 -3.8459 2.5830 2.7744 6.0046 -0.5051 -2.0060 -5.2654 2.8842 2.3626 3.6716 -2.6097 -3.0197 -0.5014 -0.8282 -0.4909 -2.9633 1.9772 1.6940
-4.6043 -0.2677 4.0974 -0.9532 1.3797 -1.7756 -3.4347 2.6793 0.6548 7.1286 -3.1729 -1.7550 5.7506 -4.3707 -0.3858 -6.5333 0.8075 3.2064 5.1286 -0.8132 -3.8399 1.0712 1.8655 0.4454 -0.2117 2.2057 1.1734 -2.1501 2.3483 3.4191 -3.6063 2.5869 3.8145 0.6450 -1.0050 -2.7928 -2.7863 -0.1522 -0.0937 4.8830 -3.3429 -2.3886 4.2486 -2.0393 -1.9683 -0.3813 -1.0287 -1.6784 -3.8725 0.2523 0.8808 1.9990 0.6614 -1.5219 2.9224 -0.5961 -3.3562 2.0161 -0.6652 -2.2518 0.9899 0.6074 -0.3925 -1.0455 0.9900 1.5027 -2.2375 1.2645 2.3730 -1.3392 0.0733 0.3232 -4.4742 1.9237 2.7442 5.9340 -3.6934 -1.3857 -5.3102 0.8177 3.3390 4.1656 -1.1014 -3.1385 -0.4172 0.2693 -0.8787 -3.5249 1.5163 1.6296
-7.1776 1.1156 2.2989 -0.6431 1.4674 -1.3925 -3.3961 2.7639 0.5539 6.2786 -4.9223 -2.6590 7.1481 -3.7746 -4.4294 -5.4690 0.0682 3.5880 4.6337 -1.9223 -0.6970 0.9811 1.9851 1.1079 -0.4054 2.2962 1.6322 -2.6708 2.3791 3.5462 -4.1593 2.7038 3.6303 1.1215 -0.8804 -2.1422 -2.7050 -0.1109 -0.0290 5.0047 -3.1560 -3.5057 5.3366 -1.7746 -2.9922 -0.0780 -0.9309 -1.2178 -3.9429 0.3553 0.7086 2.2651 0.7011 -0.6025 3.4951 -0.5860 -2.1955 2.3687 -0.6264 -1.3256 1.0499 0.7061 0.3000 -1.2570 1.0607 1.8277 -2.5865 1.3210 2.4749 -1.3487 0.1483 0.6119 -4.8292 2.0720 2.4107 6.2662 -3.9510 -3.6029 -5.7866 0.9914 2.8430 4.4555 -1.4757 -1.8219 -0.2488 0.3589 -0.4237 -3.7010 1.6168 1.5027
-6.5865 0.7240 3.3153 -0.9459 1.4364 -2.0143 -3.3811 2.8380 0.8950 6.5444 -4.0512 -2.0250 5.9442 -3.6727 0.1444 -4.5573 -0.3727 3.9087 5.0228 -1.4406 -4.0203 0.9759 2.0443 0.1900 -0.2627 2.2811 1.0276 -1.9510 2.0958 3.4906 -3.3740 2.3195 3.9992 0.7098 -0.9597 -2.9137 -2.8505 0.1648 -0.3054 4.4046 -3.1876 -1.6480 4.4228 -1.6775 -1.7146 -0.3655 -0.9625 -1.8412 -3.8739 0.4149 0.7869 2.0155 0.7153 -1.6249 3.0387 -0.5708 -3.3467 2.0581 -0.6362 -2.3056 0.9542 0.7217 -0.5483 -1.0055 1.0024 1.3409 -2.1338 1.1622 2.3192 -1.3858 0.1788 0.1148 -4.3255 1.8122 2.9122 5.6946 -3.6471 -1.0510 -5.0955 0.6202 3.4254 4.1950 -1.2528 -3.1353 -0.4336 0.3529 -1.0717 -3.4525 1.5471 1.6958
-7.1593 2.1256 1.6150 0.4050 1.8474 -0.5810 -2.7639 3.3648 1.7757 6.9804 -1.0906 -4.1274 7.6909 -3.2527 -4.2950 -5.9794 0.1535 2.2371 2.9395 -3.6791 -2.0953 0.9807 0.5410 2.0630 -0.3166 1.2094 2.4799 -3.0017 1.1960 3.8893 -4.3767 1.8582 3.9885 1.2793 -0.6299 -2.0993 -2.4311 1.3861 -0.4187 5.3819 -2.7669 -3.7994 5.1972 -2.8771 -2.3028 -0.1050 -0.3761 -1.5373 -3.7551 1.6697 0.2686 2.2517 -0.5058 0.1904 3.4581 -1.4763 -1.6286 2.1492 -1.3308 -1.0762 0.8747 -0.2219 0.7550 -1.5161 0.5373 1.8585 -2.8517 0.9259 2.4144 -1.4833 0.4664 0.3388 -4.8007 2.2355 2.5637 6.8087 -2.4333 -4.0884 -5.9739 1.3786 2.1475 3.7370 -2.7562 -2.0008 -0.0711 0.4374 -0.2496 -3.5487 2.0639 1.7144
-5.8522 0.5291 3.1051 -0.3149 -1.8514 0.8682 -2.8378 3.0512 0.5645 7.5034 -2.4042 -4.9217 6.2624 -4.1109 -4.0519 -7.0261 2.0174 1.6647 4.1602 -2.8489 -1.3945 1.0086 0.6757 2.0736 -0.2262 1.4770 2.4338 -2.8021 2.4095 3.5499 -4.1902 3.0335 3.4075 1.0690 -0.4943 -1.9987 -2.8222 -0.1688 0.1160 5.3728 -1.8699 -4.1157 5.5121 -1.3506 -2.7031 -0.2658 -0.7165 -1.3164 -3.9362 0.8540 0.3222 2.2918 -0.3524 0.1971 3.4402 -0.7031 -1.8593 2.2261 -1.0049 -1.1690 0.9865 0.2825 0.6126 -1.4760 0.7110 2.0641 -2.7666 1.3808 2.4497 -1.4723 0.3382 0.5883 -4.7423 2.6024 2.0451 6.4013 -2.9312 -4.3374 -5.9665 1.7379 2.2234 4.3026 -1.7536 -1.9198 -0.2602 -0.4913 0.1911 -3.5795 1.9519 1.3106
-6.3761 1.1947 3.0916 -0.7517 1.2728 -1.9565 -2.8627 2.7465 0.8119 3.4639 -2.1136 0.3968 5.4204 -3.2874 0.4187 -4.5876 -0.1749 3.8658 4.9999 -1.2306 -4.4190 1.3683 1.4662 0.1960 0.1704 1.8338 1.0457 -1.5730 1.8758 3.4645 -2.9645 2.2628 3.9594 0.5610 -1.1931 -3.1404 -2.6808 -0.0502 -0.2798 4.9373 -1.7786 -1.3938 4.2224 -2.4777 -2.5292 -0.4178 -1.1821 -1.9842 -3.6655 0.4045 0.7770 2.1169 0.2646 -1.8497 2.8357 -0.9695 -3.7925 1.9802 -1.0190 -2.6447 1.1480 0.2531 -0.6829 -0.7380 0.6599 1.3332 -1.8521 0.9630 2.2962 -1.2043 -0.0931 0.0935 -3.9514 1.9144 2.8438 4.6576 -2.4963 -0.1154 -4.9308 0.8725 3.3239 4.0803 -1.4943 -3.6520 -0.3013 0.0739 -1.1283 -3.1046 1.5018 1.6503
-6.2723 3.8219 1.3445 -1.0294 -2.3213 0.3789 -2.5130 3.0447 0.5122 7.5934 -1.0334 -4.3926 5.7607 0.2739 -4.0207 -6.2245 1.6448 2.3059 3.8429 -3.5859 -1.3694 0.8908 -0.7887 2.1027 0.0023 0.3099 2.6447 -2.8997 1.3110 3.7393 -3.8835 2.4623 3.7958 0.9155 -0.6978 -2.1115 -2.8135 0.0395 -0.0129 6.0883 -1.7666 -2.7682 4.8882 -2.5413 -3.2648 -0.4676 -0.8680 -1.5237 -3.8012 0.9365 0.6977 1.9827 -1.5817 -0.0079 3.1593 -1.5056 -2.0978 1.8717 -1.7068 -1.5175 0.8926 -0.7298 0.5927 -1.3936 0.2916 2.0449 -2.1165 1.5604 2.4670 -1.4013 0.1445 0.5308 -4.1428 2.8595 2.3522 6.4244 -0.7230 -3.7824 -5.6046 2.6689 2.0280 3.9043 -2.6425 -2.1454 -0.4910 -0.9510 -0.0022 -3.1627 2.0741 1.4798
-7.2469 1.2167 2.5463 -0.5975 1.3658 -1.3538 -3.4576 2.7300 0.4696 6.8605 -3.7906 -4.9167 6.8668 -4.4728 -2.7384 -5.4168 0.1305 3.6149 4.7196 -1.9415 -0.7081 0.9999 1.8449 1.1844 -0.3866 2.2485 1.6350 -2.7070 2.5599 3.4355 -4.2028 2.8488 3.5372 1.0976 -1.0513 -2.0447 -2.7491 -0.1302 0.0048 5.0704 -3.1005 -3.5785 5.3546 -1.7266 -3.0183 -0.1145 -1.0493 -1.1325 -3.9831 0.3300 0.7549 2.2459 0.5571 -0.5270 3.4549 -0.6759 -2.1655 2.3581 -0.7651 -1.2566 1.0337 0.5641 0.3786 -1.3072 1.0687 1.8391 -2.6311 1.4085 2.4625 -1.3952 0.1086 0.6593 -4.8821 2.1281 2.3711 6.3554 -3.8583 -3.6618 -5.8023 1.0625 2.9138 4.4818 -1.5019 -1.8245 -0.2663 0.2572 -0.3610 -3.7532 1.6340 1.4806
-4.3591 -0.6051 3.9382 -0.9068 1.3669 -2.0947 -3.5098 2.9090 0.9376 5.8269 -4.0005 -0.0666 6.4679 -4.1314 -2.2529 -6.3747 0.4858 3.2933 5.2410 -0.9910 -3.7845 0.9246 2.1241 0.1697 -0.3352 2.3745 0.9747 -2.0278 2.1381 3.4843 -3.4534 2.2637 4.0231 0.7812 -1.0726 -2.7604 -2.8788 0.2975 -0.3614 4.3470 -3.1482 -1.6676 4.5183 -1.6479 -1.6021 -0.3196 -1.0101 -1.7196 -3.9130 0.4752 0.7344 2.0251 0.7305 -1.5711 3.0708 -0.6276 -3.2419 2.1146 -0.6570 -2.1737 0.9400 0.7714 -0.5153 -1.0585 1.0931 1.3125 -2.1881 1.2342 2.2884 -1.4268 0.2501 0.0984 -4.3936 1.7650 2.9209 5.6637 -3.7991 -1.3956 -5.1485 0.5404 3.3764 4.3250 -1.0717 -2.9726 -0.4280 0.3577 -1.0573 -3.5244 1.5849 1.6855
-5.3081 0.4944 4.7408 -1.2390 1.5464 -2.4283 -3.0716 -0.7251 2.6436 5.3861 -3.6224 0.5637 5.7376 -4.3900 -1.5563 -6.3691 0.7885 2.6303 4.8401 -1.9290 -3.8095 1.3596 1.4392 0.2348 0.3310 2.0376 1.1641 -1.9765 2.5373 3.0163 -3.2820 2.3180 3.7499 0.9804 -0.7128 -3.0722 -2.5839 -0.0343 -0.3814 3.9266 -2.8621 -1.1004 4.4037 -1.4808 -1.4934 -0.1532 -0.6491 -2.0694 -3.6290 0.5116 0.5620 2.0104 1.3081 -2.1611 3.3507 -0.2947 -3.2906 2.2264 -0.1627 -2.4215 0.8751 1.5234 -1.1895 -1.1023 1.6513 0.8373 -1.8016 1.3101 2.1355 -1.1857 0.5076 -0.1561 -4.1192 1.5820 2.7297 5.1130 -3.7057 -0.7599 -5.3535 0.9392 3.3086 4.2058 -1.3003 -2.9705 -0.4043 0.7285 -1.4554 -3.1672 0.6456 1.9986
-6.4231 0.4760 3.2271 -0.8978 0.8672 -1.9335 -3.4508 2.3127 0.4161 3.2810 -4.1423 -1.6785 4.6930 -3.8273 0.0870 -4.3245 -0.0318 4.2329 5.3508 -0.5337 -4.0643 1.0074 2.2103 0.0021 -0.2831 2.4324 0.7617 -2.0660 2.6273 3.1360 -3.5283 2.7111 3.5674 1.0971 -1.3227 -2.5180 -2.4103 -0.4890 0.1137 5.2053 -2.8764 -2.0704 4.9217 -1.4056 -1.8762 0.1369 -1.3062 -1.3466 -3.5233 -0.0783 1.0555 2.1373 0.7942 -1.6994 3.1995 -0.5953 -3.3498 2.3937 -0.6254 -2.1648 1.1750 0.8009 -0.5269 -0.8270 1.1688 1.3884 -2.0169 1.3844 2.2816 -1.0023 0.0086 0.4163 -4.3227 1.7839 2.6455 4.3924 -3.6480 -1.0832 -4.9538 0.6734 3.4486 4.5319 -0.8043 -3.1930 -0.1464 0.1053 -0.8467 -3.3468 1.3300 1.5713
-6.9803 2.7182 0.8642 -0.2955 -1.9350 1.4300 -3.1240 2.6901 -0.0475 5.8516 -3.5484 -5.0828 6.4229 -1.4748 -5.8471 -6.2931 0.9030 2.2408 4.2880 -3.1775 -1.4752 1.1505 0.4702 2.5388 0.0368 1.4862 2.6750 -3.0261 2.0229 3.5792 -4.3265 2.7674 3.3591 1.3974 -0.7818 -1.4670 -2.5354 -0.3119 0.4079 4.6814 -1.7266 -4.1989 5.3076 -1.4809 -2.8468 0.0482 -1.0555 -0.8395 -3.7466 0.4714 0.8597 2.4924 -0.7571 0.8098 3.7643 -0.9505 -1.1891 2.5173 -1.3160 -0.6002 1.2308 0.0197 1.0999 -1.2921 0.9469 2.1798 -2.3366 2.0487 2.2289 -1.2088 0.3105 0.8029 -4.6479 2.6295 1.8814 5.7496 -2.1987 -5.1296 -5.9958 1.9712 1.7106 4.3868 -1.9996 -1.7891 -0.0464 -0.6636 0.6311 -3.4705 1.9221 1.2137
-6.2114 0.9917 1.7104 0.8366 1.2783 0.1780 -1.9445 2.9653 2.1497 5.5615 0.1465 -3.2071 7.3394 -1.0588 -3.9789 -6.2735 3.3502 1.3900 2.7990 -3.8279 -2.8500 0.5779 -0.9016 2.2609 -0.5507 0.0115 2.6918 -3.2507 0.7017 3.7321 -4.3153 1.7903 3.8621 1.5755 -0.7207 -1.9529 -2.0224 1.4101 -0.3888 5.1098 -1.9742 -4.0831 5.0419 -2.9640 -2.9430 0.1594 -0.3620 -1.5469 -3.2441 2.0301 0.2600 2.0306 -1.5481 0.3543 3.4624 -2.1092 -1.4568 2.0915 -1.8795 -1.1229 0.6281 -1.1523 0.7671 -1.7384 -0.0556 1.7618 -2.9649 0.6575 2.2510 -1.4172 0.1899 0.2928 -4.3348 2.5560 2.5371 6.1434 -0.9452 -3.7585 -5.6610 2.3820 1.8379 3.6325 -3.0298 -2.4448 0.0559 -0.0085 -0.0679 -3.1163 2.0762 1.7645
-6.5445 3.2776 0.8846 -0.4108 -2.0152 0.9583 -3.0775 2.9042 0.3179 6.8568 -1.5047 -5.2814 4.5800 -1.4414 -5.4358 -6.5487 1.2148 2.0722 4.2482 -3.2882 -1.1218 1.1623 0.2110 2.2998 0.0860 1.2166 2.6115 -2.8538 1.6904 3.7958 -4.3358 1.9950 3.6812 1.2879 -0.7518 -1.8098 -2.6320 -0.1856 0.2444 5.6477 -2.7062 -3.6837 5.6529 -1.8477 -2.4408 -0.0923 -0.8745 -1.1949 -3.7886 0.5814 0.8478 2.3947 -0.8762 0.4565 3.6353 -1.1037 -1.5521 2.3659 -1.3948 -0.9648 1.1733 -0.0714 0.8179 -1.2700 0.7456 2.1304 -2.2656 1.8534 2.4044 -1.2655 0.3203 0.6670 -4.5414 2.5447 2.2818 5.6012 -1.8159 -4.8804 -5.9376 2.2390 1.7813 4.4450 -2.1956 -1.6344 -0.1421 -0.6595 0.3159 -3.4312 1.9387 1.4315
-4.2585 -0.6196 3.8419 -1.0788 1.3675 -2.6698 -3.0085 3.0252 1.1231 5.1054 -3.3893 0.7662 6.5863 -2.6684 -0.8147 -6.1230 0.7707 3.3342 4.8768 -1.6667 -3.8962 1.3600 0.7371 0.2253 0.4144 1.2080 1.3071 -1.5712 1.6843 3.4226 -2.9180 2.0352 4.0616 0.4597 -1.2140 -2.8410 -2.9161 0.3710 -0.4845 4.3040 -1.8918 -0.8362 3.7083 -2.6075 -2.0289 -0.5255 -0.8681 -1.7459 -3.8889 0.7764 0.6190 1.8622 0.7575 -2.2148 2.7161 -1.0502 -3.5638 1.8456 -0.7353 -2.4743 0.8543 1.1481 -1.1446 -0.9587 0.6221 1.0891 -1.9646 0.9680 2.1562 -1.5060 0.9183 -0.2959 -3.9965 1.8041 2.9966 5.4651 -2.6808 -0.3301 -4.8989 0.6580 3.3843 3.8506 -1.7173 -3.2279 -0.5550 0.6264 -1.4483 -3.2406 1.6312 1.6895
-6.2471 0.8866 1.6664 0.7843 1.3850 0.0853 -2.0816 3.0256 2.1761 5.6865 -0.0030 -3.9077 7.4602 -1.4108 -4.1933 -6.4284 3.2507 1.4482 2.9748 -3.8899 -2.5039 0.6410 -0.6775 2.2873 -0.5373 0.1765 2.7079 -3.2845 0.7060 3.7586 -4.4082 1.7352 3.8772 1.5146 -0.7008 -1.9623 -2.0680 1.4628 -0.3533 5.2157 -2.2875 -4.0612 5.1742 -2.9329 -2.6954 0.1011 -0.3691 -1.5264 -3.3248 2.0241 0.2830 2.0730 -1.3644 0.3814 3.5027 -1.9113 -1.4350 2.1243 -1.7702 -1.0780 0.6626 -1.0118 0.8086 -1.7294 0.0144 1.7960 -2.9903 0.6711 2.2791 -1.4384 0.2488 0.3191 -4.4485 2.5061 2.5560 6.2614 -1.2203 -4.0559 -5.7662 2.2958 1.8516 3.7527 -2.9870 -2.2300 0.0307 0.0676 -0.0679 -3.2075 2.0801 1.7883
-6.1758 3.7913 1.0519 -0.8737 -2.3949 0.5881 -2.3329 3.0234 0.4284 4.3744 0.5883 -3.6170 6.3761 0.2312 -4.6532 -6.1214 1.5481 1.8441 3.6567 -3.8903 -2.3128 0.9117 -0.8631 2.4820 0.0477 0.3254 2.8431 -2.8904 1.3705 3.6734 -3.9547 2.4456 3.6030 1.4624 -0.9585 -1.6769 -2.5006 -0.0104 -0.0539 4.9060 -1.6209 -4.1755 5.3280 -2.2496 -2.8678 0.0052 -1.0449 -1.2718 -3.5627 0.8768 0.5570 2.1704 -1.8790 0.5641 3.6635 -1.8226 -1.2903 2.2888 -1.9948 -0.9443 1.0958 -0.9038 0.9844 -1.2833 0.3074 2.1155 -2.0419 1.5840 2.4351 -1.1422 0.0928 0.6169 -4.0900 2.8144 2.1364 5.3306 -0.1880 -4.1806 -5.5156 2.6057 1.6862 4.1118 -2.7650 -2.1635 -0.2213 -1.0652 0.2368 -3.0225 2.0461 1.3612
-6.3994 0.9212 2.4028 -0.3738 -1.9941 1.2695 -3.0231 2.7912 0.0259 5.5198 -3.4717 -5.0353 6.6447 -1.6145 -5.7392 -6.7070 2.6424 0.7847 4.1323 -3.2116 -1.6549 1.0993 0.2899 2.5737 0.0137 1.3288 2.7555 -3.0562 1.9293 3.6144 -4.3153 2.7449 3.4000 1.3984 -0.7217 -1.5078 -2.5570 -0.2403 0.3242 4.8567 -1.4160 -4.1357 5.4159 -1.4845 -2.7342 0.0265 -0.9700 -0.9238 -3.7534 0.5571 0.7939 2.4537 -0.8382 0.7882 3.7475 -0.9828 -1.1964 2.4799 -1.3336 -0.6447 1.2018 -0.0584 1.1076 -1.3194 0.8637 2.1997 -2.3252 1.9994 2.2870 -1.2217 0.3132 0.7869 -4.5975 2.6937 1.9094 5.7849 -2.1436 -5.0513 -5.9678 2.1304 1.6237 4.3552 -2.0218 -1.8276 -0.0807 -0.6763 0.5681 -3.4326 1.9742 1.2357
-6.4974 0.3960 3.0632 -0.7190 1.0906 -1.8509 -3.3827 2.3583 0.3656 3.7537 -4.0686 -0.3462 3.1875 -4.1276 -2.5558 -4.3894 -0.1361 4.0351 5.6989 -0.4462 -3.5199 1.1316 2.1825 0.3028 -0.1993 2.4003 0.9883 -2.1786 2.5299 3.1812 -3.6710 2.6601 3.4789 1.2613 -1.1289 -2.5050 -2.3581 -0.4547 0.0088 5.1981 -3.0009 -1.8542 4.9461 -1.5476 -1.5278 0.2113 -1.1629 -1.4131 -3.5304 -0.0581 0.8821 2.3036 0.8788 -1.4600 3.4711 -0.4603 -3.0858 2.5475 -0.5168 -1.9941 1.2723 0.8248 -0.3505 -0.8424 1.1192 1.4666 -2.0905 1.3234 2.2777 -0.9720 0.0361 0.4041 -4.4064 1.7326 2.5086 3.9368 -3.7785 -1.6560 -5.0273 0.5916 3.2783 4.7629 -0.7668 -2.7963 -0.0501 0.2095 -0.8018 -3.3682 1.3204 1.4763
-6.0723 0.0242 2.0471 0.5085 1.9813 -0.4819 -2.7129 3.3396 1.9351 7.2736 -3.5001 -4.6970 6.6851 -1.3023 -4.5191 -6.9526 2.1846 1.5587 3.0907 -3.6973 -1.5594 0.9884 0.5769 2.1172 -0.3436 1.1602 2.5490 -3.0798 0.9761 3.8485 -4.4516 1.6411 3.9548 1.4285 -0.4688 -2.0611 -2.3289 1.5612 -0.3958 5.1827 -3.0327 -3.7630 5.2357 -2.8633 -2.2614 0.0263 -0.1942 -1.5506 -3.6784 1.7898 0.2655 2.3132 -0.4263 0.2596 3.5511 -1.4308 -1.5179 2.2283 -1.2277 -1.0221 0.9227 -0.1409 0.7841 -1.5036 0.5105 1.8338 -2.8653 0.8527 2.3624 -1.4163 0.5686 0.3133 -4.7895 2.1992 2.5688 6.4436 -2.4875 -4.3496 -6.0175 1.5242 2.0117 3.8355 -2.7435 -1.7486 0.0171 0.5614 -0.2268 -3.5189 2.0637 1.7447
-5.6095 -0.0696 3.3598 -0.1731 1.5810 -1.0813 -3.2425 2.9203 0.5875 5.2669 -4.7562 -3.9953 6.7774 -3.4265 -5.0731 -7.0231 1.1012 1.8413 4.2633 -2.8807 -0.8898 1.0689 1.7749 1.6637 -0.3554 2.1754 1.9891 -2.8675 2.3206 3.5780 -4.3611 2.6394 3.5473 1.5082 -0.8492 -1.7544 -2.5479 0.1305 -0.1785 4.8854 -2.4512 -3.9368 5.4881 -1.8519 -2.6877 0.1795 -0.8663 -1.0255 -3.8547 0.5225 0.4816 2.5064 0.5336 0.0554 3.8802 -0.6797 -1.4726 2.6451 -0.7351 -0.7605 1.1717 0.5542 0.7723 -1.3133 1.0072 1.9630 -2.6945 1.3172 2.4642 -1.2887 0.1887 0.6769 -4.8996 2.1252 2.2112 5.7657 -3.5646 -4.4021 -5.9395 1.0540 2.4218 4.4714 -1.9004 -1.5911 -0.0234 0.3735 -0.1621 -3.6843 1.7120 1.3975
-6.1302 3.8862 1.1035 -1.0603 -2.5539 0.7149 -2.4087 2.8729 0.1713 6.8967 -1.1875 -4.0839 6.0039 0.9035 -4.2929 -6.0585 1.7745 2.1995 5.2093 -2.8172 -1.4162 0.9046 -0.9039 2.2559 0.0790 0.2992 2.6563 -2.6516 1.6596 3.6365 -3.6537 2.7906 3.5436 0.6423 -2.2634 -1.8529 -2.7785 -0.1973 0.0874 4.5754 -1.0020 -3.9104 4.2156 -0.8852 -2.4495 -0.4198 -1.3156 -1.3363 -3.7181 0.8333 0.6752 1.9381 -2.0142 0.2544 2.9638 -2.8001 -1.7936 1.9868 -1.9147 -1.2564 0.9194 -1.0138 0.7504 -1.3154 0.2914 2.0565 -1.9567 1.6490 2.2904 -1.3503 -0.0685 0.5820 -3.9647 2.9624 2.0679 5.8759 -0.2985 -4.1161 -5.4409 2.7683 1.8239 4.2058 -2.2506 -1.8286 -0.4777 -1.2510 0.1861 -3.0316 2.0465 1.2810
-7.0703 0.9324 2.3711 -0.5315 1.4385 -1.5524 -3.4151 2.7790 0.5727 6.4092 -3.9205 -4.6093 4.2539 -4.3596 -4.0026 -5.2918 -0.0804 3.5914 4.8243 -1.5774 -0.2262 1.0027 2.0923 0.9437 -0.3980 2.3773 1.4468 -2.5612 2.3521 3.4984 -4.0598 2.5604 3.6939 1.3133 -0.9959 -2.0944 -2.6509 -0.0025 -0.1650 5.7792 -3.3682 -2.4211 5.6752 -1.8606 -2.4623 0.0447 -0.9519 -1.2617 -3.8728 0.3493 0.6630 2.3522 0.7357 -0.6569 3.6973 -0.6915 -2.0347 2.5143 -0.6533 -1.2397 1.1150 0.7691 0.2138 -1.1816 1.1085 1.6998 -2.4879 1.3097 2.4111 -1.2878 0.1898 0.4883 -4.7583 1.9795 2.4624 5.3666 -3.9253 -3.7449 -5.6634 0.8497 2.8805 4.6933 -1.3998 -1.4297 -0.1594 0.3707 -0.5300 -3.6513 1.5930 1.4939
-6.2044 0.9253 2.4091 -1.0699 1.1066 -2.6074 -2.8038 -0.8199 2.6910 2.0029 -2.7986 -0.1811 3.9250 -3.0101 1.0262 -5.0694 0.5032 4.4578 4.7727 -2.0820 -4.1088 1.6352 1.4436 0.0068 0.6516 1.8784 1.0657 -1.5431 2.3270 3.0575 -2.8759 2.1830 3.7646 1.3290 -0.9283 -3.0010 -2.2949 -0.2378 -0.3445 3.9976 -3.0064 -1.3857 4.6213 -1.6738 -1.7410 0.2452 -0.8733 -1.9471 -3.3261 0.3703 0.5755 2.1033 1.3252 -2.4215 3.6254 -0.2549 -3.3860 2.5105 -0.1266 -2.5111 1.0224 1.4914 -1.3720 -0.7972 1.5129 0.7877 -1.4521 1.1427 2.1064 -0.9197 0.3797 -0.2104 -3.7507 1.5296 2.7179 3.3440 -2.9221 -0.0447 -5.0074 0.9409 3.3115 4.3404 -1.3958 -3.1911 -0.1646 0.5366 -1.5279 -2.8475 0.5331 2.0034
-4.3701 0.1076 4.3775 -0.9814 0.9171 -2.1040 -4.1569 2.3632 0.2199 4.5595 -4.2762 -4.0717 6.8320 -4.3140 -3.8595 -6.4534 0.2149 3.2292 4.6793 -1.2740 -0.1218 1.1403 1.4492 0.9769 -0.0552 1.9285 1.7767 -2.7460 3.0614 2.7918 -4.1599 2.8985 3.3477 1.3462 -1.1575 -1.9251 -2.7045 -0.1921 -0.0756 5.4599 -3.3783 -2.1113 5.5512 -1.8800 -2.2829 0.1162 -1.0343 -1.0510 -3.8171 0.0212 0.9390 2.0891 1.1108 -1.3082 3.6601 -0.5323 -2.0544 2.4640 -0.3532 -1.3066 0.8308 1.3463 -0.4997 -1.3804 1.7198 1.0656 -2.5185 1.7648 2.0509 -1.3539 0.3913 0.3197 -4.8396 1.8161 2.5064 5.7255 -4.0255 -3.4300 -5.3180 0.6704 3.3605 4.5890 -1.2285 -1.3412 -0.3350 0.4052 -0.8257 -3.8531 1.4600 1.4071
-6.0997 3.3200 1.3380 0.5644 0.4111 -1.0253 -1.6743 3.0204 0.8994 4.0019 1.3154 -3.9808 4.1645 0.9183 -1.7391 -5.5881 1.2774 2.4524 5.2161 -3.4903 -2.4379 0.5560 -1.6402 2.1038 -0.3518 -0.6183 2.7594 -2.0777 1.7692 3.6306 -3.2951 2.6916 3.6300 0.8698 -2.4822 -1.9333 -2.2245 0.3969 -0.4859 4.9244 -0.7307 -3.3252 3.8391 -1.7799 -3.4137 -0.3217 -1.8966 -1.2070 -3.2771 1.2859 0.1518 2.0733 -2.2344 0.2360 3.0868 -3.2591 -1.6882 2.2052 -2.2063 -1.2717 1.0905 -1.1993 0.7575 -0.9779 0.3492 1.7788 -2.2132 1.0101 2.3321 -1.2860 -0.3479 0.4615 -3.7545 2.8170 2.1765 4.3198 0.5664 -2.8985 -5.1841 2.3600 2.0362 4.1485 -2.8884 -2.4499 0.0094 -0.7712 -0.2401 -2.7440 2.0361 1.3526
-5.0075 0.2240 4.4875 -0.8968 1.7991 -2.3246 -2.7157 -0.9312 2.5658 1.6990 -2.2547 0.0397 3.5726 -2.7101 1.2590 -5.9845 0.9006 2.4250 4.6405 -2.4862 -3.9394 1.7752 1.2415 0.1325 0.7825 1.8215 1.1139 -1.4836 2.2269 3.0538 -2.8347 2.0625 3.7213 1.1303 -0.5588 -3.4361 -2.1239 -0.2353 -0.4378 3.5909 -2.9655 -1.1398 4.4132 -1.7992 -1.6449 -0.0082 -0.4915 -2.4434 -3.1786 0.3325 0.4793 2.4039 1.1573 -2.2660 3.5518 -0.5394 -3.4843 2.4057 -0.2897 -2.6828 1.2883 1.4205 -1.2853 -0.6618 1.4613 0.8086 -1.3496 1.0508 2.0942 -0.7577 0.3919 -0.2639 -3.6650 1.4166 2.6387 2.9938 -2.6232 0.1865 -4.9734 0.8485 3.1240 4.1995 -1.6818 -3.1281 -0.0664 0.7673 -1.5783 -2.7400 0.4439 1.9247
-3.7473 0.1516 4.5814 -0.7936 0.8547 -1.8814 -3.6835 1.6340 0.1087 2.5207 -4.1844 -2.6017 3.1642 -4.1216 -0.4140 -5.8022 -0.2954 3.4636 5.9355 -0.5997 -3.2004 0.8641 2.6754 -0.1606 -0.4799 2.7716 0.5371 -2.5785 2.9567 2.6287 -4.0231 2.7083 3.0610 1.5668 -1.0206 -2.2950 -1.8888 -0.7373 0.4122 4.6046 -3.2363 -2.1444 4.7602 -1.8622 -1.5371 0.5810 -1.0639 -1.1497 -3.0963 -0.4680 1.2825 2.2981 1.2544 -1.6434 3.7093 -0.2192 -2.9482 2.7503 -0.1692 -1.8932 1.2734 1.2627 -0.5226 -0.8695 1.5207 1.2911 -2.1319 1.6168 2.0979 -0.7063 0.2122 0.5339 -4.4570 1.3847 2.4289 3.3718 -3.8793 -1.5929 -4.7592 0.3563 3.4919 4.8781 -0.8376 -2.6284 0.0912 0.3250 -0.7604 -3.3522 1.0095 1.4546
-6.7244 2.1241 0.8244 0.5556 0.0720 -1.4133 -2.2945 3.1117 0.8360 4.8510 -2.4930 -5.2108 3.5287 -0.6613 -5.5484 -5.7418 0.4521 2.2075 5.6811 -2.7792 -1.6734 1.2396 0.5220 2.3449 -0.0614 1.2249 2.6370 -2.7866 1.7585 3.5669 -4.0826 2.5277 3.3339 1.6061 -2.4465 0.1174 -2.1911 0.0891 -0.3260 3.3411 -1.9381 -3.5143 4.1112 -1.1532 -2.4740 0.2682 -1.7341 0.2611 -3.3351 1.0703 -0.0784 2.8242 -0.3441 0.6905 3.9734 -2.1950 -0.2997 2.7254 -1.5054 -0.2708 1.5060 0.3853 0.8574 -1.1886 0.4803 1.9658 -2.5542 1.0376 2.2661 -0.9513 0.4486 0.4686 -4.4153 2.4353 1.8425 3.8933 -1.5997 -4.8588 -5.6309 1.5538 1.6756 4.6624 -2.1264 -1.4699 0.3427 -0.2220 0.0629 -3.1520 1.9047 1.1793
-3.5126 -0.7095 4.1197 -1.0804 0.8573 -2.8049 -3.2128 2.6265 0.7979 2.1326 -3.2373 -0.3361 3.7860 -2.6179 1.1072 -5.6692 0.0842 3.5130 4.7601 -2.0948 -4.0203 1.4781 1.5447 -0.0310 0.4471 1.8846 1.0183 -1.4814 2.0103 3.2200 -2.8750 2.1865 3.8295 1.2346 -1.1198 -2.6713 -2.4821 -0.2332 -0.3354 4.2763 -2.9748 -1.2288 4.6543 -1.5790 -1.6731 0.1606 -0.9206 -1.6152 -3.5496 0.1835 0.6769 1.9402 1.2394 -2.4398 3.4425 -0.3721 -3.3437 2.4021 -0.2015 -2.3789 0.8546 1.5010 -1.4123 -0.6505 0.8512 1.0110 -1.7023 1.0564 2.0730 -1.2863 0.7076 -0.3608 -3.8690 1.5196 2.8749 3.4040 -2.8987 -0.0190 -4.4548 0.2767 3.4983 4.2808 -1.4164 -3.1179 -0.3232 0.5241 -1.5276 -3.1050 1.3218 1.5761

>  <OB_ATOM_TYPES> (2dblB1)
C.3 C.3 C.3 O.co2 O.co2 O.2 O.2 C.3 C.3 C.3 C.3 C.3 C.3 C.3 C.3 C.3 C.3 C.3 O.3 C.3 C.3 C.3 C.3 C.3 C.3 C.2 C.2 C.2 C.3 C.3

>  <ENSEMBLE_RMSD> (2dblB1)
1.291 1.314 1.319 1.417 1.441 1.451 1.460 1.491 1.504 1.554 1.563 1.591 1.591 1.594 1.600 1.621 1.628 1.657 1.676 1.717 1.724 1.732 1.737 1.740 1.744 1.750 1.772 1.791 1.812 1.836 1.841 1.856 1.861 1.884 1.886 1.888 1.896 1.917 1.918 1.936 1.955 1.978 1.992 2.021 2.048 2.213 2.241 2.271 2.273 2.281

$$$$
