
 OpenBabel03071213D

 12 12  0  0  0  0  0  0  0  0999 V2000
   39.2610   32.0180   46.9200 O   0  0  0  0  0
   34.9680   30.3400   48.2340 O   0  0  0  0  0
   34.9230   29.7750   50.9100 O   0  0  0  0  0
   37.4410   29.2650   52.1130 O   0  0  0  0  0
   39.5720   30.9540   51.0860 O   0  0  0  0  0
   39.5590   31.2090   48.0820 C   0  0  0  0  0
   37.1550   30.8580   48.3640 O   0  0  0  0  0
   35.8840   30.8950   49.1200 C   0  0  0  0  0
   36.1770   29.8530   50.1240 C   0  0  0  0  0
   37.2960   30.2960   51.0740 C   0  0  0  0  0
   38.5530   30.4000   50.2590 C   0  0  0  0  0
   38.3570   31.2900   49.0440 C   0  0  0  0  0
  1  6  1  0  0  0
  2  8  1  0  0  0
  3  9  1  0  0  0
  4 10  1  0  0  0
  5 11  1  0  0  0
  6 12  1  0  0  0
  7  8  1  0  0  0
  7 12  1  0  0  0
  8  9  1  0  0  0
  9 10  1  0  0  0
 10 11  1  0  0  0
 11 12  1  0  0  0
M  END
>  <MOLID> (2gbpA1)
2gbpA1

>  <SMILES_CANONICAL> (2gbpA1)
OC[C@H]1O[C@@H](O)[C@@H]([C@H]([C@@H]1O)O)O	

>  <FINGERPRINT> (2gbpA1)
0000000000000000000000000000000000000001000000000000000000000000000000000000000000000000000000000000000000000001000000010000000010000000001010000000000001000000000000000000000000000000000000000000000000000000001010000000000000000000000000000000000000000000000000000000000000000000000000000000000100000000000000000010000000000000000000000000000000000000010000000000000010000000000000000000000000000000000000000000000000000010100000000000000000000000000000000000000000000000000000000000000000101010100100000000100000000000000000000000000000000000000000000000000000000000000000000001000101000000001000000000000000000000000000000000000000000001000000000000000000000000001000000000000000000000000000000000000000000101000000000000000000000000000010000000000000000000000100000000000000000000000001000000000000000000000000000000000000000000000000000000000000000000000000000010000000000000000000000010000000000000000000000000001000000000000000000000000000000000000000000000000010100000000000000000000000000000000000000000000000000000

>  <MACCS166> (2gbpA1)
000000000000000000000000000000000000000000000000000011001000000000000001000000000100000011100000010000000000100000000001001000100011000011110010010001011010101000111000

>  <OB_MW> (2gbpA1)
180.063

>  <OB_logP> (2gbpA1)
-3.2214

>  <OB_PSA> (2gbpA1)
110.38

>  <OB_MR> (2gbpA1)
35.736

>  <OB_ATOMIC_CHARGES> (2gbpA1)
-0.2176082051 -0.1869438097 -0.2147572358 -0.217390508 -0.2176051443 0.2142075037 -0.3236184203 0.3023518207 0.2434466105 0.219930334 0.214419815 0.1835672391

>  <MCT_HBD> (2gbpA1)
5

>  <MCT_HBA> (2gbpA1)
6

>  <ENSEMBLE_TOTAL> (2gbpA1)
37

>  <ENSEMBLE_COORDS> (2gbpA1)
1.8322 1.4219 -2.6908 -2.4608 -0.2561 -1.3768 -2.5058 -0.8211 1.2992 0.0122 -1.3311 2.5022 2.1432 0.3579 1.4752 2.1302 0.6129 -1.5288 -0.2738 0.2619 -1.2468 -1.5448 0.2989 -0.4908 -1.2518 -0.7431 0.5132 -0.1328 -0.3001 1.4632 1.1242 -0.1961 0.6482 0.9282 0.6939 -0.5668
1.9602 1.7413 -2.4049 -2.5432 -0.3502 -1.3916 -2.5095 -0.5337 1.4222 0.0634 -1.2624 2.4954 2.1739 0.2974 1.3496 2.0609 0.6278 -1.5322 -0.2371 0.0410 -1.3728 -1.4451 0.1213 -0.6233 -1.3407 -0.7182 0.6379 -0.1341 -0.3153 1.4581 1.1064 -0.2517 0.5947 0.8448 0.6027 -0.6332
1.6304 1.1527 -2.7284 -1.7267 -0.3704 -1.7764 -2.4472 -0.9761 1.1954 0.0407 -1.3089 2.4995 2.1631 0.3362 1.5202 1.4502 0.1339 -1.7569 -0.3904 1.2432 -0.6523 -1.4173 0.2688 -0.5529 -1.2142 -0.7644 0.5327 -0.1483 -0.3175 1.5045 1.1229 -0.1636 0.6993 0.9369 0.7660 -0.4846
1.8061 1.4539 -2.6443 -2.0634 0.9349 -0.6699 -2.5137 -1.0686 1.2006 -0.0018 -1.1195 2.5613 1.9440 0.6386 1.4159 2.0615 0.6628 -1.4944 -0.1522 -0.2191 -1.4568 -1.4141 -0.3195 -0.8044 -1.2653 -1.0195 0.5332 -0.2405 -0.3311 1.4069 1.0531 -0.1484 0.6415 0.7864 0.5354 -0.6896
2.3630 0.2103 -2.1095 -2.6625 -0.1154 -1.3069 -2.4134 -0.9261 1.3675 0.2653 -1.4821 2.2229 2.1384 0.4831 1.3029 1.8271 1.3572 -1.4687 -0.3925 0.4653 -1.3343 -1.5474 0.2784 -0.5206 -1.2783 -0.7886 0.5268 -0.0837 -0.4017 1.3738 1.0983 -0.0483 0.4985 0.6855 0.9679 -0.5523
1.8919 1.2973 -2.6160 -2.7008 0.1933 -1.1811 -1.5561 -1.7613 0.4824 -0.0923 -0.9424 2.6908 2.1549 0.2452 1.3883 2.0122 0.4177 -1.5099 -0.3516 0.1708 -1.2638 -1.5011 0.4482 -0.4686 -1.4867 -0.3794 0.8083 -0.2092 -0.0824 1.5714 1.0119 -0.2113 0.6843 0.8269 0.6044 -0.5863
1.6556 0.9827 -2.7517 -1.7975 -0.2038 -1.7589 -2.3852 -1.1317 1.1029 0.0779 -1.3726 2.4518 2.0951 0.5255 1.5888 1.3355 0.0296 -1.7503 -0.3703 1.2961 -0.5957 -1.4178 0.3386 -0.5076 -1.1636 -0.7796 0.4809 -0.1314 -0.3483 1.4953 1.1561 -0.1045 0.7344 0.9455 0.7681 -0.4901
2.0348 1.2822 -2.6621 -2.5779 0.0938 -1.2298 -2.0740 -0.3539 1.6834 0.2381 -1.6284 2.2771 0.9946 1.0095 1.6999 2.1286 0.4561 -1.5123 -0.2230 0.1324 -1.3469 -1.3664 0.2481 -0.5122 -1.3025 -0.7970 0.5831 0.1283 -1.1139 0.9676 1.1165 0.0045 0.7045 0.9028 0.6667 -0.6523
1.7541 1.3906 -2.5894 -2.2802 0.3822 -1.2882 -2.4629 -0.5428 1.5229 0.0076 -1.9139 1.5772 1.7471 1.0862 1.4894 2.0529 0.5757 -1.4672 -0.0769 -0.4604 -1.2258 -1.3569 -0.4489 -0.6038 -1.3165 -0.0442 0.8594 -0.0457 -0.4933 1.5552 1.1670 -0.0006 0.7862 0.8105 0.4693 -0.6157
1.8655 1.4497 -2.5805 -2.3267 -0.8914 -1.0001 -2.4685 -0.1941 1.5736 -0.2311 -1.9553 1.2117 1.9067 0.7673 1.5827 2.1157 0.6376 -1.4444 -0.1586 -0.0607 -1.2603 -1.4126 0.1199 -0.6069 -1.2799 0.1779 0.9092 -0.0753 -0.5630 1.4512 1.1826 -0.1081 0.7333 0.8822 0.6201 -0.5695
2.6925 1.4472 -1.7061 -2.5211 -0.7315 -1.3842 -2.4307 -0.0262 1.2961 0.2505 -1.3293 2.3955 2.2286 0.2260 1.0778 1.5205 0.6646 -1.8660 -0.7149 0.7519 -1.0269 -1.2666 -0.5309 -0.7619 -1.3606 -0.7747 0.7364 -0.0885 -0.3385 1.4388 1.0346 -0.1833 0.4376 0.6556 0.8247 -0.6372
1.9905 2.0682 -1.9465 -2.6164 -0.1645 -1.3307 -2.4769 -0.8616 1.3596 0.0741 -0.0281 2.5966 2.2766 -0.2492 1.1548 1.9962 0.7143 -1.5250 -0.2875 0.0680 -1.4578 -1.3725 -0.5359 -0.7600 -1.3764 -0.2347 0.7243 -0.0968 -0.7202 1.3718 1.0897 -0.5390 0.4459 0.7993 0.4826 -0.6330
2.4438 1.6726 -1.8718 -2.3465 0.7854 -1.0247 -2.3622 -1.0650 1.4337 0.2289 -1.0287 2.5447 1.4986 0.9862 1.2785 1.8732 0.3756 -1.8230 -0.3356 -0.3983 -1.4385 -1.5377 -0.3258 -0.6790 -1.3158 -0.3322 0.8223 0.0274 -0.9395 1.1481 1.1290 -0.1318 0.4844 0.6968 0.4016 -0.8747
2.2013 0.4976 -2.2731 -2.6736 0.0324 -1.1669 -2.3014 -1.4008 1.2051 -0.2214 0.0586 2.2899 2.3095 -0.0723 1.1717 1.8436 1.4376 -1.2725 -0.4021 0.5995 -1.1937 -1.5115 0.2351 -0.3771 -1.1998 -1.0417 0.3880 0.0419 -0.8732 1.2471 1.1718 -0.3554 0.3760 0.7417 0.8826 -0.3944
1.7417 1.8252 -2.3932 -1.1621 -1.2888 -1.4994 -2.4587 0.2561 1.4226 -0.0329 -1.3646 2.4553 2.1991 -0.2253 1.1526 1.6872 0.5851 -1.7055 -0.5694 0.9340 -0.9452 -1.4522 -0.1532 -0.6999 -1.5008 -0.5597 0.7614 -0.1819 -0.3530 1.4758 0.9583 -0.3888 0.4891 0.7718 0.7329 -0.5136
2.7100 0.7416 -1.9765 -2.7126 0.0825 -1.2223 -1.6482 -1.8869 0.7568 0.0524 -0.9172 2.5920 2.1823 0.2903 1.1967 1.3539 0.3367 -1.9005 -0.6380 1.1487 -0.8483 -1.3979 -0.0449 -0.7141 -1.4554 -0.4810 0.7400 -0.1860 -0.0834 1.4762 0.9899 -0.0748 0.5277 0.7495 0.8884 -0.6277
2.4403 0.1527 -2.0735 -2.2587 0.9855 -0.3840 -2.3816 -1.3492 1.1359 0.2158 -1.3039 2.3189 1.8887 0.7962 1.3228 1.7622 1.2866 -1.5569 -0.3499 0.1544 -1.5066 -1.5341 -0.1685 -0.7822 -1.2036 -1.0523 0.4070 -0.1888 -0.3896 1.3132 1.0181 0.0326 0.5042 0.5917 0.8553 -0.6989
1.7696 1.7130 -2.4211 -2.0413 0.8899 -0.3683 -2.4055 -1.4260 1.1796 -0.5170 0.3935 2.1081 2.1272 0.1702 1.3723 2.0346 0.6825 -1.4832 -0.1983 -0.1375 -1.4405 -1.4175 -0.3308 -0.7317 -1.1988 -1.2368 0.4661 -0.0944 -0.7540 1.3864 1.1350 -0.4305 0.5578 0.8066 0.4665 -0.6253
2.1692 -0.1204 -2.0980 -2.8286 0.2812 -1.0379 -1.3661 -1.7984 0.1804 0.1076 -1.2119 2.4594 2.1406 0.4353 1.2984 1.8019 1.1263 -1.5299 -0.5011 0.5351 -1.2310 -1.6175 0.5354 -0.3454 -1.4372 -0.4998 0.7553 -0.1590 -0.1923 1.5131 1.0172 -0.0354 0.5728 0.6730 0.9449 -0.5372
2.7108 1.4360 -1.5486 -2.5246 0.2623 -1.1470 -2.3637 -0.5395 1.7131 0.1421 -1.8739 1.4196 1.5906 1.3188 1.1498 1.7843 0.4036 -1.8381 -0.3058 -0.5450 -1.2834 -1.5116 -0.5103 -0.5278 -1.3177 -0.0394 0.9015 0.0327 -0.4563 1.4485 1.1256 0.1113 0.5618 0.6374 0.4324 -0.8493
2.3508 -0.0763 -2.0109 -2.0936 0.0253 -1.6396 -2.2083 -1.3957 1.0260 0.3839 -1.5432 2.1217 1.9377 0.9024 1.5007 0.9934 0.3178 -1.9036 -0.5885 1.4521 -0.4856 -1.5609 0.4160 -0.3868 -1.0964 -0.8094 0.3746 -0.0330 -0.4166 1.3697 1.1563 0.1264 0.6063 0.7585 1.0012 -0.5723
1.9755 1.5603 -2.3510 -2.5342 0.0387 -1.2778 -1.9211 -1.9301 0.7923 -0.1487 0.6877 2.2874 2.2566 -0.4824 1.2398 1.7187 0.3420 -1.6710 -0.4247 0.9555 -0.7782 -1.2649 -0.1889 -0.6911 -1.4494 -0.5912 0.7654 -0.1448 -0.5240 1.5418 1.0157 -0.5102 0.5648 0.9213 0.6427 -0.4224
1.5804 2.1751 -0.9541 -2.5851 -0.6774 -1.3798 -2.3675 0.2744 1.1277 0.1120 -0.5727 2.6021 2.3628 -0.1587 0.9538 1.8954 0.9213 -1.5383 -0.3949 0.2111 -1.3641 -1.2941 -0.7331 -0.8057 -1.3458 -0.6169 0.7107 -0.0320 -0.1084 1.2722 1.1236 -0.5696 0.4145 0.9452 -0.1450 -1.0389
1.9500 1.6173 -2.2697 -2.7542 0.2360 -0.9880 -1.5069 -1.9879 0.2584 -0.1811 0.7059 2.2785 2.2310 -0.2599 1.2914 1.9424 0.4123 -1.5214 -0.4100 0.1899 -1.2012 -1.5128 0.3487 -0.3124 -1.4504 -0.6787 0.8115 -0.1440 -0.5293 1.5729 1.0246 -0.5304 0.6002 0.8113 0.4763 -0.5202
2.5448 0.0859 -1.8993 -2.5219 0.5107 -1.0325 -2.3219 -0.8580 1.5993 0.2613 -1.9683 1.0921 1.5687 1.2698 1.4578 1.7151 1.1961 -1.5962 -0.2672 -0.1329 -1.3194 -1.4727 -0.3322 -0.5857 -1.3023 -0.1575 0.9138 0.0691 -0.5911 1.3913 1.1278 0.1963 0.6410 0.5993 0.7812 -0.6622
2.6400 1.3332 -1.6655 -2.2340 1.1954 -0.5794 -1.3052 -2.0736 0.6714 -0.0447 -0.6089 2.6560 1.9698 0.5898 1.0694 1.6995 0.2895 -1.8551 -0.5660 -0.2508 -1.4387 -1.7406 -0.1333 -0.6389 -1.5288 -0.6719 0.7662 -0.3234 -0.0054 1.4035 0.8838 -0.1145 0.4928 0.5496 0.4506 -0.8817
2.2723 0.9221 -2.5092 -2.5883 -0.0084 -1.1105 -2.1151 -0.1701 1.8263 0.6498 -2.0445 0.6999 0.5747 1.4484 1.6309 2.1302 0.1757 -1.3114 -0.2368 0.0581 -1.2192 -1.3854 0.2334 -0.4030 -1.3088 -0.7058 0.7890 0.1149 -0.8687 1.2960 0.9985 0.3053 0.8968 0.8939 0.6547 -0.5855
2.5424 1.7442 -1.5248 -2.2124 0.7962 -0.3073 -2.3247 -1.4747 1.3439 -0.4620 0.5059 1.9951 2.1339 0.2918 1.0858 1.7897 0.5791 -1.8162 -0.4204 -0.1845 -1.5072 -1.5581 -0.4043 -0.6806 -1.1950 -1.2557 0.5215 -0.0492 -0.6767 1.3256 1.0982 -0.3735 0.3824 0.6575 0.4523 -0.8182
2.9651 0.5972 -1.7642 -2.8399 0.5982 -0.5752 -1.9627 -1.7234 0.5457 0.5283 -1.3040 2.2743 0.9209 1.3569 1.3993 1.6595 0.0610 -1.9018 -0.5910 0.3484 -1.2671 -1.4841 0.5359 -0.1802 -1.2586 -0.5348 0.8776 0.2137 -0.8952 0.9562 1.1079 0.2510 0.5234 0.7410 0.7090 -0.8879
1.5188 0.4350 -2.7651 -1.5527 -0.5097 -1.3420 -2.3378 -0.9362 1.2944 0.1817 -1.9601 0.6228 1.2362 1.2613 1.8703 1.4184 -0.2444 -1.5243 -0.2217 1.3387 -0.6671 -1.3304 0.4960 -0.3707 -1.2539 -0.0653 1.0354 0.0687 -0.7400 1.3387 1.2175 0.1740 0.9524 1.0551 0.7507 -0.4447
2.2196 -0.1527 -2.0857 -2.2554 1.3235 -0.2460 -1.1091 -2.0924 0.1647 -0.0062 -1.0586 2.5084 1.8961 0.7103 1.3265 1.7368 1.0784 -1.5707 -0.4990 0.2311 -1.4030 -1.6879 0.0799 -0.6299 -1.4474 -0.7810 0.5993 -0.3145 -0.1996 1.4251 0.9150 0.0214 0.5695 0.5521 0.8397 -0.6581
2.7351 0.2046 -2.0097 -2.6836 0.2450 -0.9164 -2.1104 -1.3385 1.3062 0.5468 -1.8849 0.7497 0.9427 1.6057 1.5828 1.4314 -0.2061 -1.6290 -0.4914 1.0713 -0.9130 -1.3362 -0.0241 -0.5635 -1.2429 -0.2825 0.9309 0.1854 -0.6312 1.3140 1.1417 0.4336 0.8003 0.8813 0.8072 -0.6523
3.0217 0.9099 -1.3809 -2.7834 -0.1956 -0.9695 -2.0357 -0.1185 1.9069 0.6695 -1.9883 0.6773 0.7025 1.5553 1.3503 1.8597 0.1607 -1.6977 -0.4619 -0.0333 -1.3181 -1.5325 0.1618 -0.4052 -1.3003 -0.6823 0.8343 0.1661 -0.7710 1.2153 0.9894 0.3645 0.6311 0.7051 0.6369 -0.8439
1.5405 0.7153 -2.6783 -1.3432 -0.8034 -1.5692 -1.8471 0.3917 1.7935 0.3942 -2.1117 0.4659 0.9168 1.1223 1.9798 1.5019 -0.0525 -1.4871 -0.4238 1.1846 -0.6466 -1.3942 0.1509 -0.5247 -1.3647 -0.5333 0.8286 0.0363 -0.9671 1.2265 1.0706 0.1200 0.9841 0.9128 0.7831 -0.3725
2.5907 1.3923 -1.6050 -2.1810 1.1697 -0.1322 -1.2469 -2.3050 0.3377 -0.4322 0.7431 2.1010 2.0772 0.2442 1.0898 1.6471 0.3582 -1.8260 -0.6189 -0.1048 -1.3751 -1.7304 -0.1266 -0.4864 -1.4422 -0.9578 0.7538 -0.1790 -0.4964 1.4571 0.9569 -0.3548 0.4608 0.5587 0.4378 -0.7756
2.1367 0.1226 -2.2129 -2.2340 1.1855 0.1277 -1.0920 -2.2435 -0.1610 -0.4780 0.3539 2.2770 2.0930 0.1797 1.2683 1.7021 1.2188 -1.4226 -0.5293 0.3581 -1.2892 -1.6662 0.0435 -0.4918 -1.3662 -1.0353 0.5399 -0.1470 -0.6978 1.3819 1.0047 -0.2790 0.4852 0.5763 0.7937 -0.5025
2.5463 0.1711 -1.8008 -1.6024 -0.7843 -1.5138 -1.7525 0.1963 1.9495 0.5222 -2.0028 0.2143 0.9158 1.2180 1.8036 1.1295 0.1969 -1.7746 -0.7285 1.2375 -0.6209 -1.5852 0.1170 -0.4214 -1.3132 -0.6235 0.8756 0.1609 -0.9317 1.0737 1.0452 0.2627 0.7590 0.6618 0.9427 -0.5441

>  <OB_ATOM_TYPES> (2gbpA1)
O.3 O.3 O.3 O.3 O.3 C.3 O.3 C.3 C.3 C.3 C.3 C.3

>  <ENSEMBLE_RMSD> (2gbpA1)
0.000 0.209 0.499 0.523 0.525 0.537 0.548 0.569 0.609 0.625 0.636 0.637 0.683 0.692 0.710 0.752 0.762 0.806 0.810 0.821 0.835 0.850 0.863 0.882 0.884 0.931 0.934 0.936 0.958 0.994 1.035 1.063 1.075 1.104 1.167 1.188 1.232

$$$$
