
 OpenBabel03071213D

 13 13  0  0  0  0  0  0  0  0999 V2000
   -5.2930    7.0450   12.0420 C   0  0  0  0  0
   -5.4970   -0.5130   15.6740 N   0  0  0  0  0
   -6.8430    5.8550   13.4400 O   0  0  0  0  0
   -5.6590    0.7830   17.7850 O   0  0  0  0  0
   -7.4940    0.9060   16.0290 O   0  0  0  0  0
   -4.7000    5.1600   13.3840 N   0  0  0  0  0
   -6.2860    3.4580   14.9010 S   0  0  0  0  0
   -3.6960    3.2500   14.4490 N   0  0  0  0  0
   -4.0070    2.1330   15.2070 N   0  0  0  0  0
   -5.6840    5.9910   13.0410 C   0  0  0  0  0
   -4.8140    4.0300   14.1770 C   0  0  0  0  0
   -5.3540    2.1150   15.4970 C   0  0  0  0  0
   -6.1030    0.7890   16.4000 S   0  0  0  0  0
  1 10  1  0  0  0
  2 13  1  0  0  0
  3 10  2  0  0  0
  4 13  2  0  0  0
  5 13  2  0  0  0
  6 10  1  0  0  0
  6 11  1  0  0  0
  7 11  1  0  0  0
  7 12  1  0  0  0
  8  9  1  0  0  0
  8 11  2  0  0  0
  9 12  2  0  0  0
 12 13  1  0  0  0
M  END
>  <MOLID> (2h4nA1)
2h4nA1

>  <SMILES_CANONICAL> (2h4nA1)
CC(=O)Nc1nnc(s1)S(=O)(=O)N	

>  <FINGERPRINT> (2h4nA1)
0000000001000100000000000000000000000000000001000000000000001001000000000000000000000000010000000000000000111000000001000000000000000000000000000000000000000000000000001000000000000100000000010000000000000010100000010000000000010000000000000000000000010000000000000000000000000001000000000001000010000000100000000000001000000000001100000010000000000000010000000000000000000100100000001001000000000000100001000000010000000000000001100000000000000001100000000000010000100000000000000000000000000000010000000000110101000000000000000000000000000000000000000000000001000010000000000000000000000010000000000010000000000000001000000100000000000000000000000000000000000000100000000000000000110000000101101001000000100000010000000000000000000000000000000000000010000000000000000010000000000000000000000000000000101100000000000000000000000000001001000000000000000000000001000000000000000001000001000100110000010000000000000000000000001000000000000000010100000000000010010000000000000100000000100000000000000000000000010000001001101000

>  <MACCS166> (2h4nA1)
000000000000000000000000000000011001000000000010001100100111100110100000100011111011000100010111100001000100010100001011100100000110101110011100010110100101011110011000

>  <OB_MW> (2h4nA1)
221.988

>  <OB_logP> (2h4nA1)
0.998

>  <OB_PSA> (2h4nA1)
151.66

>  <OB_MR> (2h4nA1)
45.2161

>  <OB_ATOMIC_CHARGES> (2h4nA1)
0.0968599021 0.0412870176 -0.2729111087 -0.1482576235 -0.1482576235 -0.1528070801 -0.0087412678 -0.1222015226 -0.1188714429 0.2478189753 0.2092620371 0.2590210213 0.1177987156

>  <MCT_HBD> (2h4nA1)
2

>  <MCT_HBA> (2h4nA1)
7

>  <ENSEMBLE_TOTAL> (2h4nA1)
11

>  <ENSEMBLE_COORDS> (2h4nA1)
0.2016 3.8910 -2.7292 -0.0024 -3.6670 0.9028 -1.3484 2.7010 -1.3312 -0.1644 -2.3710 3.0138 -1.9994 -2.2480 1.2578 0.7946 2.0060 -1.3872 -0.7914 0.3040 0.1298 1.7986 0.0960 -0.3222 1.4876 -1.0210 0.4358 -0.1894 2.8370 -1.7302 0.6806 0.8760 -0.5942 0.1406 -1.0390 0.7258 -0.6084 -2.3650 1.6288
0.8408 4.1156 -2.0566 0.7616 -3.6248 1.3084 -0.5024 2.2796 -2.7739 -0.1470 -1.9934 3.0762 -1.6997 -2.8671 1.2797 0.2648 2.3693 -0.5661 -0.1827 0.5378 1.2606 0.4631 0.0346 -1.1700 0.2785 -1.1945 -0.5724 0.1265 2.8158 -1.8674 0.2312 1.0168 -0.3268 -0.0465 -1.0603 0.6924 -0.3883 -2.4294 1.7158
0.9277 2.2125 -2.7837 0.7551 -3.6442 0.8580 0.2384 4.1993 -1.6668 0.0506 -2.2835 2.9295 -1.6934 -2.9417 1.2100 -0.6382 2.1919 -0.9347 -1.2603 0.1867 0.6554 0.9855 0.4298 -0.5575 1.0443 -0.7826 0.0921 0.1788 2.9731 -1.7277 -0.1691 1.0297 -0.3653 -0.0734 -1.0309 0.7310 -0.3461 -2.5400 1.5596
-0.5059 2.0476 -2.6764 0.7913 -3.5955 1.4821 0.2693 4.1651 -1.9171 -0.7079 -2.0430 2.8769 -1.5909 -2.9950 0.7107 0.3728 2.4205 -0.4286 -0.4561 0.4839 1.1186 1.0162 0.1477 -0.9541 0.7743 -1.1185 -0.4571 0.0935 2.9754 -1.6581 0.4046 1.0626 -0.2363 0.0371 -1.0728 0.6290 -0.4983 -2.4779 1.5104
1.4848 2.5405 -2.1110 1.3205 -3.1287 1.7601 -0.1101 4.2435 -1.6777 -0.6439 -1.9698 2.9585 -1.0986 -3.3949 0.9139 -0.7057 2.0914 -1.1213 -1.0776 0.2983 0.7798 0.5952 0.0558 -1.1480 0.7141 -1.0992 -0.4088 0.1687 3.0476 -1.5954 -0.2782 0.8844 -0.6194 -0.1112 -1.0907 0.6107 -0.2580 -2.4782 1.6587
0.4898 1.9722 -3.0530 -1.7821 -3.0096 0.4143 -1.2167 3.3308 -2.0822 0.6714 -3.3659 0.9793 -0.8411 -2.2787 2.6663 0.3921 2.4388 -0.6950 -0.7773 0.1126 -0.0911 1.5863 0.8081 0.5892 1.3902 -0.4432 1.1478 -0.2288 2.6225 -1.9101 0.5398 1.2038 -0.1022 0.2060 -0.9208 0.8495 -0.4297 -2.4705 1.2872
-0.4162 4.0259 -1.6230 -2.2465 -2.2508 1.7005 -0.9120 2.0086 -2.8052 -0.2816 -3.4283 0.6045 0.0148 -2.3380 2.8438 0.8443 2.0526 -1.2801 -0.6548 0.0702 -0.2144 1.8552 0.4087 0.1148 1.5340 -0.7199 0.8429 -0.2349 2.5770 -1.9570 0.8055 0.9233 -0.4919 0.2557 -1.0014 0.7546 -0.5635 -2.3280 1.5106
-0.2845 1.6556 -2.9356 -2.1126 -2.6958 1.0069 -0.6597 3.8340 -2.0615 0.2384 -3.4001 0.3367 -0.1932 -2.5739 2.6718 0.5321 2.3829 -0.7550 -0.6990 0.0606 -0.1831 1.6005 0.7849 0.6511 1.3873 -0.4682 1.1947 -0.1993 2.7087 -1.8706 0.6056 1.1625 -0.1244 0.2283 -0.9569 0.8252 -0.4440 -2.4943 1.2438
-1.0745 2.8700 -1.9912 1.1216 -3.1644 2.0001 1.1463 3.6539 -2.3681 -0.9753 -1.9372 2.8294 -1.1199 -3.4074 0.7899 0.7825 2.2552 -0.5702 0.6170 0.2981 1.1620 -0.1850 0.1457 -1.2671 -0.5389 -1.0521 -0.6833 0.3957 2.9523 -1.6949 0.3916 0.9489 -0.4011 -0.1780 -1.0932 0.5775 -0.3832 -2.4697 1.6170
0.0025 2.0679 -2.8946 1.1296 -3.4926 0.9104 0.4807 4.1516 -1.8499 0.0834 -2.2370 2.8894 -1.4048 -3.2134 1.1073 0.7842 2.2440 -0.5997 1.0688 0.0458 0.7897 -1.0285 0.6333 -0.5609 -1.2652 -0.6175 -0.0293 0.4091 2.9297 -1.7341 0.1625 1.0773 -0.2276 -0.2550 -1.0255 0.7008 -0.1673 -2.5637 1.4985
-0.8894 1.8649 -2.6246 -1.8520 -2.1081 2.2895 -0.3824 4.0473 -1.8406 -0.9857 -3.1694 0.1268 0.5128 -3.0602 2.1465 0.6773 2.3150 -0.7946 -0.7238 0.2192 0.1131 1.8229 0.3951 0.0373 1.5528 -0.8417 0.5907 -0.2042 2.8358 -1.7099 0.7224 1.0303 -0.3076 0.2625 -1.0588 0.6667 -0.5133 -2.4692 1.3067

>  <OB_ATOM_TYPES> (2h4nA1)
C.3 N.3 O.2 O.2 O.2 N.am S.2 N.ar N.ar C.2 C.ar C.ar S.O2

>  <ENSEMBLE_RMSD> (2h4nA1)
0.000 1.022 1.058 1.128 1.268 1.290 1.430 1.530 1.569 1.617 1.629

$$$$
