
 OpenBabel03071213D

 54 55  0  0  0  0  0  0  0  0999 V2000
    1.6740   14.6880   45.0170 C   0  0  0  0  0
    4.1880   12.1610   43.8670 C   0  0  0  0  0
    3.5540   11.7490   46.2710 C   0  0  0  0  0
    9.3680    7.0100   49.1930 C   0  0  0  0  0
    8.0270    8.4440   47.5910 C   0  0  0  0  0
    0.7620   17.7150   43.2090 C   0  0  0  0  0
   14.3760    7.4340   50.7000 N   0  0  0  0  0
    3.2670   19.7010   42.3310 N   0  0  0  0  0
    6.4230   20.3920   44.3170 O   0  0  0  0  0
    7.1720   18.9390   42.9030 O   0  0  0  0  0
    2.7560   19.5270   44.5100 O   0  0  0  0  0
   13.0940    7.5550   48.4420 O   0  0  0  0  0
    5.5810   16.2110   42.6730 O   0  0  0  0  0
    7.3440   13.9950   46.6440 O   0  0  0  0  0
    9.3210   10.7320   48.5870 O   0  0  0  0  0
    1.7580   15.4430   43.7090 C   0  0  0  0  0
    7.6560   16.9500   44.8430 C   0  0  0  0  0
    9.5990   12.2960   44.8860 C   0  0  0  0  0
    7.2930   18.4190   45.2210 C   0  0  0  0  0
    5.9200   11.6080   45.5430 C   0  0  0  0  0
   13.8650    9.8040   50.6330 C   0  0  0  0  0
   11.6160   13.0710   46.1300 C   0  0  0  0  0
    8.3200   11.5600   45.2210 N   0  0  0  0  0
   10.5020   10.8410   46.6060 N   0  0  0  0  0
    6.6870   14.6390   44.5970 N   0  0  0  0  0
   11.3620    8.8480   49.2030 N   0  0  0  0  0
    4.2670   16.9830   44.2990 N   0  0  0  0  0
   15.4530   11.4030   54.2700 C   0  0  0  0  0
   13.8230   13.2770   49.8640 C   0  0  0  0  0
   14.0740   11.2300   54.1310 C   0  0  0  0  0
   16.3240   11.0310   53.2340 C   0  0  0  0  0
   12.6840   14.0640   49.6930 C   0  0  0  0  0
   14.2510   12.4320   48.8390 C   0  0  0  0  0
   13.5820   10.7050   52.9430 C   0  0  0  0  0
   15.8180   10.4960   52.0590 C   0  0  0  0  0
   11.9990   14.0100   48.4800 C   0  0  0  0  0
   13.5300   12.3690   47.6450 C   0  0  0  0  0
    4.6140   12.3410   45.3270 C   0  0  0  0  0
    9.3780    7.8070   47.9060 C   0  0  0  0  0
    1.8560   16.9450   43.9250 C   0  0  0  0  0
   13.2980    8.3860   50.6160 C   0  0  0  0  0
   10.3080   12.2350   46.1910 C   0  0  0  0  0
    6.4160   16.0260   44.8670 C   0  0  0  0  0
    7.1310   12.3220   44.9370 C   0  0  0  0  0
   10.5000    8.8570   47.9900 C   0  0  0  0  0
    3.1920   17.4590   43.4540 C   0  0  0  0  0
    7.0380   19.2800   44.0270 C   0  0  0  0  0
    3.0980   18.9830   43.4470 C   0  0  0  0  0
   12.5620    8.2110   49.3200 C   0  0  0  0  0
    5.3870   16.4510   43.8360 C   0  0  0  0  0
    7.1040   13.7470   45.4640 C   0  0  0  0  0
   10.0310   10.2510   47.7400 C   0  0  0  0  0
   14.4400   10.2910   51.9190 C   0  0  0  0  0
   12.3920   13.1550   47.4430 C   0  0  0  0  0
  1 16  1  0  0  0
  2 38  1  0  0  0
  3 38  1  0  0  0
  4 39  1  0  0  0
  5 39  1  0  0  0
  6 40  1  0  0  0
  7 41  1  0  0  0
  8 48  1  0  0  0
  9 47  1  0  0  0
 10 47  2  0  0  0
 11 48  2  0  0  0
 12 49  2  0  0  0
 13 50  2  0  0  0
 14 51  2  0  0  0
 15 52  2  0  0  0
 16 40  1  0  0  0
 17 19  1  0  0  0
 17 43  1  0  0  0
 18 23  1  0  0  0
 18 42  1  0  0  0
 19 47  1  0  0  0
 20 38  1  0  0  0
 20 44  1  0  0  0
 21 41  1  0  0  0
 21 53  1  0  0  0
 22 42  1  0  0  0
 22 54  1  0  0  0
 23 44  1  0  0  0
 24 42  1  0  0  0
 24 52  1  0  0  0
 25 43  1  0  0  0
 25 51  1  0  0  0
 26 45  1  0  0  0
 26 49  1  0  0  0
 27 46  1  0  0  0
 27 50  1  0  0  0
 28 30  1  0  0  0
 28 31  2  0  0  0
 29 32  1  0  0  0
 29 33  2  0  0  0
 30 34  2  0  0  0
 31 35  1  0  0  0
 32 36  2  0  0  0
 33 37  1  0  0  0
 34 53  1  0  0  0
 35 53  2  0  0  0
 36 54  1  0  0  0
 37 54  2  0  0  0
 39 45  1  0  0  0
 40 46  1  0  0  0
 41 49  1  0  0  0
 43 50  1  0  0  0
 44 51  1  0  0  0
 45 52  1  0  0  0
 46 48  1  0  0  0
M  END
>  <MOLID> (2mipD2)
2mipD2

>  <SMILES_CANONICAL> (2mipD2)
CC[C@@H]([C@@H](C(=O)N)NC(=O)[C@@H](NC(=O)[C@H](CC(C)C)NC[C@@H](NC(=O)[C@H](C(C)C)NC(=O)[C@H](Cc1ccccc1)N)Cc1ccccc1)CCC(=O)O)C	

>  <FINGERPRINT> (2mipD2)
0000000000000011000000000000000000000001000000000011001000000000000000000001000000000001000000000000010000000001000001100000000000000000000110000000000000000000000000000000000000000000000000000000000000000000000000000000000000100000000000000000000000001100000000000000000000001000100000000000000000001010000010001100000000001000001100000000000000000000010000000000000110110000000000000000011000000000100000000011001000000001000000000010000000000001100000000000000000000000000000000000000000001100000000000000100000000000000000000000000000000000000000100000000000000000000000000000000001000000000000000000100000000000000000000000001000000001000000000000000000000001000000000011100000100100000011100000000000000001000000000000000000000011100000110101000000000000000110000000000000000000000010000000000010000000000000000000000000000000000000000000000000000000000000000001000000000000000000000000000000001100000000000000000000000000000000000000011000000000000010110010000000000000010000000000000000000000100000000010111000000000

>  <MACCS166> (2mipD2)
000000000000000000000000000000000000000000000000010001000000000000000000010100100001000001110010001000010000011001101100001010001011000101111100111010101111111110111000

>  <OB_MW> (2mipD2)
751.463

>  <OB_logP> (2mipD2)
5.1499

>  <OB_PSA> (2mipD2)
234.84

>  <OB_MR> (2mipD2)
207.879

>  <OB_ATOMIC_CHARGES> (2mipD2)
7.00326e-05 5.93837e-05 5.93837e-05 0.0022754263 0.0022754263 0.0022761773 -0.1227022119 -0.0862908095 -0.2456528549 -0.2456528549 -0.2697902847 -0.2717580798 -0.2714756919 -0.2718278544 -0.2714875154 0.0022070179 0.042892381 0.1111005679 0.1163341865 0.0267526072 0.0547477779 0.0494670647 -0.2083992367 -0.2039254248 -0.1965995446 -0.196560409 -0.1962842627 -2.0018e-05 -2.00181e-05 -0.0003218162 -0.0003218162 -0.0003218298 -0.0003218298 -0.0042078985 -0.0042078985 -0.0042104592 -0.0042104592 0.0018810277 0.0289621547 0.0290189267 0.173615738 0.1170308172 0.1733210403 0.1504260452 0.1726799481 0.1743422663 0.3649311613 0.2805516463 0.2595333089 0.2616197773 0.2575705417 0.261214655 -0.0202309906 -0.0204144184

>  <MCT_HBD> (2mipD2)
8

>  <MCT_HBA> (2mipD2)
14

>  <ENSEMBLE_TOTAL> (2mipD2)
50

>  <ENSEMBLE_COORDS> (2mipD2)
-7.8250 -1.0302 -4.2072 0.3290 3.6897 2.3632 -2.1145 3.5690 2.6839 -0.0953 -4.0820 2.8917 1.1333 -3.0669 4.7930 -8.1142 2.1164 -4.6637 4.2408 -6.4279 1.3845 -5.5669 1.8917 -7.6694 -3.0936 8.0855 -2.4820 -3.0271 7.0414 -0.4545 -5.9325 3.8832 -6.5671 4.9179 -3.3167 2.1621 -2.9364 2.3761 -4.5093 -3.7580 1.2516 -0.9961 1.6162 -2.7549 0.1201 -6.8516 0.0929 -3.9424 -3.3854 5.0833 -3.0326 -0.0587 0.0128 -0.2437 -4.2574 6.0655 -2.2861 -1.1330 3.1061 0.4741 3.9266 -6.2784 3.7840 2.3880 0.1593 -0.8182 -0.5196 1.2231 -0.9073 1.6271 -0.7771 1.3449 -2.6537 3.1012 -1.8584 2.7333 -4.0758 2.2660 -5.2183 2.6821 -4.2005 6.3789 -6.5669 7.2810 6.2666 1.5443 0.3645 6.5483 -7.4982 6.1801 5.4964 -5.5574 7.1784 5.2143 2.4873 0.0299 6.0311 0.2217 0.3032 5.8052 -7.3681 5.0658 4.6836 -5.4251 5.9822 3.9976 2.0411 -0.3322 4.7230 -0.2605 -0.1006 -0.9340 2.9703 1.9610 0.8070 -2.9512 3.3253 -6.9916 1.1614 -5.0011 4.5602 -5.6442 2.5663 1.3508 0.1835 0.2926 -3.7382 3.6683 -2.6273 -1.6002 1.7958 -0.1174 2.0707 -2.8116 2.4989 -5.6635 1.8387 -5.2864 -3.3878 7.0825 -1.6209 -5.7428 2.6713 -6.5471 4.1035 -4.2235 2.3264 -3.8837 2.8336 -3.8777 -2.7897 2.0083 -1.0256 1.7479 -2.1460 1.1768 4.8364 -6.2879 4.9612 3.7388 0.6117 -0.3865
-7.3449 5.0424 -4.8313 -4.9493 -0.6378 1.0518 -5.0962 -0.6081 -1.4044 1.3576 -5.0551 0.8473 1.7127 -5.1979 3.2991 -6.7817 2.9892 -1.7133 6.3793 -4.4905 0.2309 -5.0558 6.3457 -1.2878 -1.5844 3.2806 -7.5106 -2.6266 1.5276 -8.5348 -3.7104 4.5524 -0.7567 5.3870 -2.5116 2.7316 -2.5138 4.5985 -4.1440 -0.8444 2.4973 -1.5999 2.5579 -1.8497 0.1042 -7.0940 3.7832 -4.0376 -2.8719 1.5605 -5.2983 0.0139 -0.1729 0.3866 -1.7694 1.2887 -6.2948 -3.3880 0.7516 -0.2499 5.9172 -5.8884 2.1604 1.8428 1.1334 1.5169 -1.1082 0.7495 0.4446 1.4842 -1.2192 2.0694 -2.3339 1.3305 -2.9350 3.8990 -3.7952 1.5075 -4.2172 3.3666 -3.1707 6.0714 -6.3688 6.4133 1.3691 4.0685 4.5994 4.9461 -6.8563 5.6368 7.1171 -5.7919 5.7952 0.5524 4.1088 3.4001 2.2661 3.0811 4.7712 4.9366 -6.7081 4.3004 7.1120 -5.6413 4.3507 0.7046 3.1691 2.4502 2.4334 2.0671 3.7448 -4.1536 -0.5497 -0.2273 1.5521 -4.2702 2.1218 -6.5115 4.1164 -2.6834 6.2138 -4.4863 1.6742 0.8456 0.0018 1.6392 -2.2865 2.2191 -4.0717 -1.9626 0.5292 -0.7154 2.6816 -3.2625 2.0673 -5.0427 4.4860 -2.7858 -2.0652 2.0156 -7.5658 -4.5258 5.0912 -1.4982 5.1371 -3.4919 2.0326 -3.0048 3.5231 -3.8068 -1.6328 1.5710 -1.7664 2.2572 -2.0460 1.2769 6.0491 -6.0516 3.6340 1.6789 2.1053 2.6314
-8.4633 4.6309 -5.2044 -4.1804 -0.0591 1.8365 -5.1050 0.0634 -0.4365 1.7929 -4.8825 0.4080 1.1569 -4.9672 2.8050 -7.4708 3.3111 -2.6863 6.7383 -4.7117 1.9012 -5.8201 6.2540 -1.0737 -3.8924 0.5031 -7.8811 -2.6510 2.4068 -8.1095 -4.6389 4.3299 -0.6232 4.9649 -2.6310 3.7436 -2.7003 4.7919 -3.8423 -0.8026 2.7741 -1.8811 3.2804 -1.8417 0.1053 -7.0131 4.5784 -4.7870 -3.4409 1.6897 -5.0871 0.3708 0.0641 0.0506 -2.4949 1.0903 -6.1000 -2.9971 1.2319 0.1051 5.2458 -6.0717 3.2444 2.6358 1.0434 0.5351 -0.6144 1.1213 0.2224 1.8530 -0.9612 1.7216 -2.5667 1.6012 -2.8116 3.9796 -3.7711 1.9866 -4.5932 3.6107 -3.2153 5.4363 -7.7568 7.1720 3.6012 4.5408 2.7988 6.5598 -7.8710 6.2602 4.3401 -7.0674 6.8086 2.6130 4.5861 1.7369 4.1874 3.3754 3.1262 6.4980 -7.3039 5.0420 4.2681 -6.4631 5.4902 2.3058 3.4681 1.0560 3.8645 2.1687 2.3844 -3.8304 -0.0004 0.3695 1.5414 -4.0713 1.6555 -6.8652 4.5634 -3.2809 5.9132 -4.7237 3.0970 1.4563 0.2716 1.0847 -2.6598 2.4033 -4.0104 -1.7414 0.8881 -0.6758 2.6786 -3.1515 2.0456 -5.4094 4.7558 -2.8881 -2.9984 1.4304 -7.4628 -5.2476 5.0474 -1.4112 4.9113 -3.6013 2.9901 -3.3036 3.7326 -3.6865 -1.6244 1.8622 -1.8321 2.6693 -1.9270 1.1650 5.3085 -6.5680 4.6438 2.9538 2.2124 1.3948
-7.7321 6.1402 -4.7710 -5.0965 -2.0716 -0.9985 -4.9345 -0.8771 -3.1453 1.9143 -5.2200 0.8045 1.7798 -5.3076 3.2821 -6.8295 3.4166 -3.5098 6.7786 -3.3831 1.1593 -5.7709 5.7029 -0.4187 -1.7605 1.6708 -8.0048 -0.6221 0.3776 -6.5073 -4.6697 3.6809 -0.4097 4.8800 -2.1002 3.5341 -2.1292 5.1140 -2.8136 -1.1638 2.2509 -1.0316 2.5268 -1.8084 0.2316 -6.3364 5.6735 -4.4345 -2.3260 2.7390 -5.1718 -0.3554 -0.6421 0.0928 -1.0749 2.6928 -6.0153 -3.7023 -0.0487 -1.1760 6.1707 -5.2121 2.6364 1.0623 0.9491 1.4258 -1.7194 -0.1389 0.1239 1.0290 -1.4377 1.9728 -2.2781 1.6987 -2.9803 3.9632 -3.4612 1.8993 -4.0743 3.8772 -3.0520 8.0575 -6.7804 6.1456 -0.4115 3.7437 4.3178 8.8474 -6.1833 5.0842 6.7165 -6.8167 6.0486 -1.0228 3.6379 3.0058 0.6181 2.9439 4.6484 8.2395 -5.6743 3.9979 6.0590 -6.2645 4.8773 -0.5527 2.7460 2.1163 1.1277 1.9819 3.6868 -4.1815 -1.2823 -1.9022 1.6866 -4.4227 2.0650 -6.3479 4.8149 -3.1913 6.2959 -3.7125 2.4896 0.2689 -0.3378 1.4354 -1.9655 2.9028 -3.7148 -2.1911 0.0567 -1.2415 2.5785 -3.2073 2.2077 -4.9896 4.8555 -2.5127 -1.1148 1.4461 -6.8357 -5.1214 4.6455 -1.0189 4.9835 -3.0048 2.7077 -2.7157 4.0858 -3.1432 -1.8148 1.4538 -1.7007 2.0717 -2.0823 1.3369 6.7887 -5.7027 3.8967 0.5608 1.8817 2.4709
-4.9942 6.9667 0.2765 -4.1914 -3.2335 -1.1549 -4.4188 -2.1190 -3.3364 3.6810 -3.4032 -0.8463 3.0448 -5.1481 0.8014 -4.5970 7.2209 -2.7276 7.2030 -1.8835 2.6556 -7.8980 5.8713 -3.7305 -0.2274 1.4288 -5.9867 -1.1644 2.1123 -7.9535 -6.3106 5.2505 -5.2782 4.2784 -2.1727 4.1211 -5.5021 2.1723 -3.4439 -2.4532 2.2459 -1.0950 3.0115 -0.4642 0.7965 -4.9680 5.8142 -0.6987 -3.0570 2.3771 -5.3558 -0.3713 -0.3189 -0.0317 -1.8460 3.1140 -5.8743 -3.6654 -0.8412 -1.3631 6.6890 -4.2529 2.6588 0.5941 0.8878 1.9409 -1.8157 -0.1485 -0.0176 1.0712 -1.5136 1.5426 -2.8120 1.3240 -3.1894 4.4739 -2.5503 1.8457 -4.6317 4.3278 -3.3510 7.2251 -7.4789 5.4195 0.7364 1.0266 6.2196 8.2348 -6.4450 5.2844 6.0824 -7.4014 4.7139 -0.5245 1.1718 5.5147 1.8751 0.8311 5.5317 8.0373 -5.4168 4.4397 5.8709 -6.2947 3.7975 -0.5561 1.1208 4.1707 1.8427 0.7830 4.0812 -3.6108 -2.1776 -2.0630 2.8556 -3.7133 0.3791 -5.5124 6.2270 -2.0473 6.3904 -2.9104 3.2863 0.1088 -0.4432 1.3983 -3.1483 2.5572 -3.8599 -2.3100 -0.1608 -1.3900 3.0796 -2.7660 1.5397 -5.8250 5.0115 -2.9059 -1.0672 2.1799 -6.7381 -6.6642 5.3892 -4.1111 4.9412 -2.5145 3.1432 -4.5631 2.9574 -3.5174 -2.5183 1.2710 -1.8387 2.4196 -1.4389 1.2478 6.8040 -5.3340 3.6729 0.6736 0.9049 3.4266
-8.5897 3.7270 -4.1109 -4.1376 -2.0017 -0.1548 -4.8797 -0.9286 -2.2419 5.8109 -1.5177 2.7945 5.7499 -3.5163 1.3288 -6.9678 2.1330 -2.0490 2.7901 -3.9311 6.2914 -5.6560 5.1733 0.0514 -2.4206 2.9307 -8.3564 -1.4268 4.7809 -7.4618 -4.4938 3.1829 -0.0089 1.7669 -4.5932 3.2556 -2.8955 5.1436 -3.0098 -0.8669 2.5422 -1.4078 2.4257 -0.6816 3.0514 -7.1082 3.8461 -3.8500 -2.7087 2.7911 -5.2914 0.4521 -0.4743 -0.6084 -1.5127 2.7229 -6.2119 -3.0965 0.1069 -0.8894 4.5912 -5.1919 5.2768 2.3151 1.0689 -0.0207 -0.8154 0.1143 -0.2062 2.2860 -1.2275 0.7994 -2.1403 1.7516 -3.1691 3.5259 -3.1191 3.5632 -4.3593 3.3695 -2.7446 5.6649 -8.6867 3.0471 2.1957 4.3281 2.7607 4.8523 -8.7951 4.2454 6.0876 -7.4814 2.6263 0.9810 3.8547 2.1237 3.3705 3.7262 2.5029 4.5134 -7.6897 4.9329 5.7218 -6.2887 3.3679 1.0351 2.8290 1.2568 3.4271 2.6113 1.5735 -3.6914 -1.2007 -1.3532 5.0067 -2.2813 1.7704 -6.7858 3.5954 -2.3929 3.1198 -4.8437 5.2090 1.4694 -0.0985 0.4423 -2.2481 3.0078 -3.8713 -1.6693 0.2484 -1.3785 3.5978 -2.6245 2.2097 -5.3956 4.1090 -2.0641 -1.7692 3.6110 -7.3836 -5.1229 4.0696 -0.5772 2.7241 -4.1854 3.9102 -3.1897 3.9608 -3.1693 -1.4958 1.6393 -1.9513 2.7113 -1.4069 2.1032 4.9475 -6.3844 4.4636 2.3035 2.1747 0.9763
-7.4613 -0.7374 -4.5584 2.9159 2.0723 -1.2968 2.0577 3.8725 0.1500 -0.0095 -2.7362 4.2709 1.7692 -1.1655 4.9925 -8.0174 2.2072 -3.9727 3.5470 -6.4081 3.1660 -6.3433 3.5586 -7.0528 -3.2706 5.5848 1.2751 -3.9782 7.5083 0.2725 -6.1490 5.0098 -5.2747 4.7073 -3.3939 2.4861 -3.0122 3.3906 -4.3417 -2.4971 2.7315 0.5616 0.8372 -3.4177 1.0324 -6.4169 0.3276 -4.3270 -3.6125 5.0553 -1.7591 -0.4539 -0.5660 -0.2691 -4.5868 5.3668 -0.6480 0.5004 2.5386 -1.2242 3.7792 -5.2582 5.2861 1.2254 -1.9359 -1.5413 -0.8389 0.5030 -1.1790 1.6482 -1.2522 0.7827 -2.2511 3.0529 -1.7217 2.5254 -3.6728 3.2099 -5.1985 3.0407 -3.6484 6.9580 -4.7501 8.1053 4.3670 -0.8754 -4.2454 6.7903 -6.0050 7.3950 6.1404 -3.7145 7.8453 3.0078 -0.4151 -4.4654 4.6623 -1.6109 -3.1588 5.8063 -6.1389 6.4879 5.0757 -3.8588 6.8679 2.0352 -0.7477 -3.5981 3.6132 -1.9724 -2.2225 1.7722 2.5030 -0.4133 1.0576 -1.7725 3.8103 -6.8879 1.6746 -4.8257 4.2063 -5.2993 3.8361 1.0093 -0.8972 -0.4619 -3.5744 3.5617 -1.9938 -0.5940 1.7735 -0.5144 2.0535 -2.3624 2.8346 -5.7221 2.6417 -4.9357 -3.9220 6.2888 0.3195 -6.1000 3.8729 -5.7330 3.8545 -4.0273 3.1054 -3.8567 3.3103 -3.4548 -1.8841 2.5537 -0.4889 1.4401 -2.4388 1.4594 4.9236 -5.0188 6.2036 2.3524 -1.5514 -2.4295
-5.1960 0.3399 -7.5741 -6.1051 0.6551 2.6579 -6.6235 0.8501 0.2734 0.4997 -3.9265 0.2627 1.1984 -4.8152 2.4724 -5.8620 0.2877 -4.5967 5.6848 -2.9446 -0.2237 -7.3936 3.6506 -4.3126 1.6757 1.8729 -5.1748 1.2395 4.0836 -4.8090 -6.1910 3.1553 -2.4138 4.5546 -1.7543 2.6407 -3.0880 4.5548 -3.8738 -3.1082 3.7399 -0.3013 1.5415 -0.6871 0.2840 -4.6367 1.2735 -6.5286 -0.9640 2.0679 -3.5967 -1.1060 0.6931 1.2157 0.4632 2.4226 -3.2468 -4.5563 1.8448 1.1818 5.1480 -4.8578 1.1610 0.9026 1.8247 2.1931 -2.1985 1.5844 1.5693 0.5748 -0.6126 2.3988 -2.4329 1.9827 -1.6498 3.1137 -2.7955 1.1567 -4.0173 2.4335 -3.8323 7.3190 -7.1461 4.0527 3.5290 2.1951 5.5608 7.9839 -6.6111 2.8784 6.0215 -6.8720 4.2752 2.1293 2.5655 5.6726 4.0112 1.7268 4.3962 7.2943 -5.8682 1.9949 5.2743 -6.0727 3.3195 1.3163 2.4604 4.6058 3.1335 1.6088 3.2459 -5.5047 0.6738 1.2723 0.8261 -3.5797 1.6944 -5.6422 1.5330 -5.4285 5.4646 -3.3796 1.1446 -0.0800 0.6752 2.3271 -1.9199 2.8224 -2.7067 -3.2308 1.4798 0.5426 1.8820 -2.5052 1.8476 -5.2074 2.7268 -4.5938 1.1480 2.9106 -4.4818 -6.2927 3.1734 -3.6370 4.3453 -2.5560 1.7317 -3.0597 3.3755 -3.5308 -2.9241 2.5399 -0.4869 1.3413 -1.1708 1.3935 5.8886 -5.5788 2.2292 1.8358 1.9497 3.3470
-5.4354 -0.1692 -7.4064 -5.8936 1.4157 2.8288 -6.4918 1.5005 0.4438 0.2572 -3.8795 0.5363 0.9820 -4.5559 2.8087 -5.9799 0.1616 -4.3982 5.3763 -3.2516 -0.3529 -7.3089 3.7008 -4.5267 1.4843 1.3441 -1.9425 1.9392 0.4919 -4.0098 -6.1666 3.1926 -2.5931 4.5355 -1.6951 2.4102 -2.9932 4.3546 -4.3383 -2.8915 4.1006 -0.5853 1.3798 -0.7274 0.1696 -4.7826 0.8249 -6.4778 -1.0171 1.7831 -3.6870 -1.0378 1.0261 1.1262 0.3914 2.3240 -3.7627 -4.3578 2.4637 1.2190 4.7758 -4.9893 1.2325 1.1631 2.0285 1.7552 -1.9987 2.0637 1.4615 0.6113 -0.3127 2.3229 -2.4399 2.1430 -1.7481 2.9107 -2.7649 1.1563 -4.0138 2.3033 -3.9920 6.9443 -7.0518 4.2951 3.9985 2.6209 4.9103 7.5700 -6.7463 3.0213 5.6772 -6.6683 4.5325 2.6410 3.1208 5.0343 4.3865 1.9957 3.7846 6.8822 -6.0824 2.0749 4.9336 -5.9512 3.5117 1.7655 2.9518 4.0270 3.4399 1.8045 2.7008 -5.3524 1.3474 1.4215 0.6436 -3.3913 1.9121 -5.7388 1.2762 -5.3949 5.1990 -3.5481 1.0584 0.0884 1.0247 2.1358 -1.8935 2.7572 -2.9346 -3.1095 1.9641 0.5243 1.7522 -2.3572 1.9158 -5.2249 2.5488 -4.7403 1.3422 1.2750 -3.2870 -6.2606 3.1578 -3.8161 4.1943 -2.5756 1.6227 -3.0144 3.2364 -3.8296 -2.8006 2.8779 -0.6362 1.2472 -1.0529 1.3447 5.5167 -5.6550 2.3362 2.1745 2.2443 2.8247
-6.0071 3.8071 1.4126 -0.4587 -3.0066 -4.1650 -1.0539 -1.1436 -5.6624 3.6098 -1.3880 5.2199 5.6199 -1.4458 3.7734 -5.5606 5.7281 -1.0191 2.5414 -6.3364 3.9115 -7.8992 3.6598 -3.3392 -1.0749 5.9665 -7.0302 -2.5191 6.8485 -5.4982 -6.2422 4.9260 -4.3191 3.6059 -4.6644 1.2993 -4.1691 1.7212 -3.9538 -1.4862 1.8945 -1.1958 1.0492 -2.1871 3.0526 -5.3207 3.5198 0.0994 -2.0378 3.7437 -5.0282 0.9742 -0.0119 -0.5062 -1.1420 4.9554 -4.9246 -1.2673 -0.8814 -3.2198 4.8660 -5.8278 4.3713 0.5081 1.0251 1.7120 -0.2496 -0.5176 -1.1070 2.0864 -0.8170 1.4928 -1.4061 1.9726 -3.5040 3.3648 -3.5803 3.3314 -4.3483 3.7205 -2.7820 8.9550 -5.4384 3.1453 -3.1245 0.5169 3.9284 8.5291 -5.1179 4.4952 8.0663 -5.9098 2.2533 -3.1531 0.9013 2.5291 -1.9476 0.3291 4.5517 7.2407 -5.2710 4.8488 6.6786 -6.0867 2.6399 -2.0018 1.0635 1.8536 -0.7043 0.5108 3.8233 -0.4538 -1.5066 -4.3267 4.1205 -1.2791 3.8027 -5.9840 4.2751 -1.0304 3.8038 -5.9560 3.3002 0.8660 -0.2517 0.9802 -2.2323 3.1440 -3.6569 -0.4174 0.0865 -2.4215 3.4566 -2.2314 2.8283 -5.7237 3.5865 -2.3600 -1.6779 6.0230 -5.8191 -6.6158 4.1492 -3.4459 3.5812 -4.6786 2.5283 -3.6789 2.7473 -3.4954 -1.1668 1.3955 -2.2708 2.0595 -1.7661 2.4969 6.2710 -5.7587 3.8805 -0.7291 0.8424 2.5196
0.1722 6.3967 -0.2308 -5.6026 -3.3516 -1.5605 -3.7075 -3.6337 -3.0934 2.0758 -5.4962 0.5917 1.9516 -5.5589 3.0687 -1.2022 6.7229 -2.9645 6.7495 -3.4159 1.0157 -4.6067 7.5297 -1.6656 -5.2497 2.1784 -7.3632 -3.7575 3.8808 -7.0628 -4.7611 6.2775 -3.5918 4.6543 -1.7153 2.9311 -4.4634 3.0805 -1.4789 -1.5361 -0.1553 -3.7670 2.3335 -2.0783 -0.0659 -0.9525 5.5548 -0.7797 -4.2461 2.1078 -4.4537 -0.5887 -1.2185 -0.3527 -3.5634 1.8557 -5.7769 -3.8930 -1.6097 -1.6504 6.2005 -4.8266 2.9129 0.5456 0.5325 1.0449 -1.9377 -0.7108 -0.5435 0.7488 -1.8378 1.6219 -3.2287 0.9269 -2.6070 3.9156 -3.5135 1.6738 -3.0043 4.4286 -2.6735 7.6957 -5.3576 6.8845 -1.3104 3.1757 3.8572 8.4678 -5.7864 5.7316 6.5148 -4.7384 6.7129 -1.8523 3.0113 2.5203 -0.2355 2.4644 4.2419 7.9992 -5.5696 4.4893 5.9985 -4.5231 5.3732 -1.2570 2.1749 1.6516 0.4062 1.5583 3.3054 -4.1252 -3.0969 -1.7451 1.7555 -4.7084 1.8390 -1.8790 6.3675 -1.6577 6.2363 -3.4140 2.3753 -0.1064 -0.8346 1.0300 -3.2213 2.1644 -3.3456 -2.4408 -1.2124 -1.8136 2.5046 -3.3961 1.9578 -3.1821 5.6158 -1.8677 -4.1746 2.7665 -6.7865 -4.2481 6.4904 -2.4973 4.8637 -2.7866 2.3649 -3.6411 3.2410 -2.3755 -2.3310 -0.0963 -2.8315 1.8875 -2.3648 1.0403 6.7188 -4.9074 4.3033 -0.0898 1.4116 2.0633
-0.9168 7.6105 -1.3573 -2.7949 -2.8772 0.5936 -4.5005 -3.3640 -1.1208 0.0566 -4.4862 2.1285 0.3487 -2.9571 4.0593 -1.2602 4.6268 -0.7329 5.1786 -4.9805 1.7959 0.6048 4.2408 -4.3689 -8.0301 3.5226 -0.4800 -7.9615 1.3073 -1.0276 -0.3430 2.2728 -3.6503 4.4080 -1.8180 2.4295 -3.7038 3.5777 -4.9527 -3.7744 -0.2091 -4.3845 1.7003 -2.8462 -0.4162 -1.6679 6.6011 -2.1917 -5.4945 3.0657 -2.1677 -0.3873 -0.8971 -1.6544 -6.9659 2.9470 -2.4862 -3.3727 -1.1798 -1.0903 4.2920 -4.8802 4.0541 1.8252 0.2232 -1.5213 -1.4664 0.0074 -2.0103 0.8489 -0.8677 0.4596 -4.0465 1.1697 -2.5408 2.7612 -3.4038 2.0662 -2.6306 3.5468 -2.9004 6.0744 -4.4599 7.9203 3.9438 3.5437 0.1560 5.9214 -5.7642 7.3018 5.7176 -3.3501 7.2497 2.7410 3.7566 -0.6288 4.3843 2.2949 0.3905 5.4128 -5.8656 6.0608 5.1344 -3.4623 5.9253 2.0752 2.7048 -1.1385 3.6704 1.1603 -0.1660 -3.1993 -2.6561 -0.8418 0.3590 -3.0710 2.5565 -1.0247 5.2380 -2.0959 4.9180 -4.1001 2.9202 0.5703 -0.1461 -0.7610 -4.6795 2.2969 -3.1821 -2.6408 -0.7781 -2.3526 1.6388 -2.5024 1.9783 -1.4981 4.3708 -3.2496 -7.6890 2.4741 -1.2672 -0.3721 3.4946 -3.7473 4.0167 -2.9833 2.4523 -3.6294 3.2046 -3.7843 -3.5346 0.0813 -3.2154 1.4263 -2.1201 0.5332 5.0009 -4.6689 5.3446 2.5543 1.3551 -0.8910
-8.1010 0.7708 -0.2446 2.3550 0.5568 -5.0902 2.9273 2.0421 -3.2152 2.3728 -5.3837 2.2047 0.7894 -4.3860 3.8327 -7.3692 3.6772 -0.1079 5.6516 -1.5649 3.2158 -7.4803 4.6659 -3.8733 0.0930 6.6433 -0.6450 0.7491 4.6331 0.2127 -6.0940 5.7968 -2.4184 2.6015 -0.3070 2.8897 -3.7079 3.0905 -3.7123 -0.5250 1.6436 -0.1910 2.8208 -2.7682 -0.1158 -6.9764 1.3915 -1.0373 -1.8541 4.5151 -1.6798 -0.9370 -1.5089 -1.4883 -1.5735 5.0393 -0.2910 0.6354 1.1744 -3.4473 4.3470 -2.2920 5.1288 0.0332 -3.6918 -2.1311 -0.7781 -0.5936 -2.6060 0.5066 -2.6876 0.0270 -1.6864 2.1403 -2.1361 3.0165 -2.5666 2.5850 -4.8888 3.4286 -1.7439 3.2070 -0.8968 9.0112 3.3284 -4.6766 -4.6787 3.8544 -2.1821 8.8233 2.9926 -0.0896 7.9575 2.5411 -3.4810 -4.9187 3.0390 -5.4776 -3.6379 4.2408 -2.5682 7.5946 3.3861 -0.5184 6.6287 1.5093 -3.1820 -4.1101 1.9317 -5.1507 -2.7582 2.0973 0.8535 -3.6332 1.3056 -4.3372 2.4168 -7.2549 2.8429 -1.3657 4.4725 -1.2779 4.0141 0.2694 -2.4080 -1.3652 -2.5381 3.1700 -1.5964 0.0863 0.5088 -2.2052 1.7319 -2.9312 2.0428 -6.2077 3.3732 -2.3295 -0.1219 5.3808 -0.2050 -6.5674 4.7486 -2.8451 3.2665 -1.3166 3.1109 -3.7502 3.2027 -2.4909 -0.7275 1.4873 -1.3929 1.7843 -2.7838 0.5405 3.9946 -1.7060 6.4499 1.2015 -4.0432 -2.9796
-6.2547 -0.8995 -4.3351 -0.5131 1.6704 4.2849 -1.8292 3.7090 4.7079 3.3197 -4.9677 -0.3075 1.7052 -5.8280 1.3694 -5.9381 1.9996 -5.3171 6.0628 -2.7300 3.5503 -2.4704 1.6841 -6.7897 -3.8803 7.8678 -2.8732 -5.4739 6.2904 -3.3069 -2.9166 3.7448 -5.8669 2.8176 -2.6698 4.2062 -1.5384 2.4999 -2.6729 -4.0272 1.6089 0.3682 3.3143 -1.5609 0.2641 -5.2264 0.1028 -3.8716 -2.8974 5.1677 -1.7637 -0.6809 -0.0529 0.6296 -4.0444 6.0725 -1.3823 -1.5474 2.9071 2.4040 5.3646 -5.0309 3.8933 0.6536 -0.2885 -1.4465 -0.7239 1.3948 0.7338 1.0095 -1.7644 0.4517 -2.5926 3.3251 -0.2462 3.6063 -3.4770 2.1828 -3.6916 2.6444 -3.5234 3.6365 -7.7429 6.7260 3.4981 2.5968 -2.8456 3.4823 -7.9474 5.2972 4.3281 -6.6844 7.1836 2.3660 3.0093 -2.0369 3.6640 1.3005 -3.1633 4.0188 -7.0701 4.4297 4.9292 -5.7516 6.2474 1.4881 2.0904 -1.5994 2.7164 0.3085 -2.6865 -1.7072 2.4808 3.8421 2.1387 -4.6249 0.5696 -4.8188 1.0338 -4.9928 5.0296 -3.5728 4.1276 0.6706 -0.4213 0.0641 -3.2446 3.7272 -1.4676 -1.9142 1.7748 1.4715 2.3544 -3.4274 1.4725 -3.5195 1.7384 -4.6377 -4.5601 6.7239 -2.6219 -2.9618 2.5196 -5.8110 3.7028 -3.1834 3.5254 -2.7018 2.8781 -2.5916 -2.9636 2.2138 0.4809 2.3175 -2.1475 0.6734 4.7679 -5.9256 4.9225 1.6755 0.6840 -1.9221
-5.9325 -1.2252 -5.3916 -3.3555 3.4323 4.2933 -4.6810 1.6655 3.2187 4.3817 -3.5544 0.3037 2.8226 -5.3153 1.0799 -5.9474 1.8232 -6.0916 4.9450 -2.6880 5.5541 -2.4063 1.8725 -7.4295 -4.3675 6.7038 0.1472 -4.0826 8.0571 -1.6686 -3.0588 3.8351 -6.4174 2.0300 -3.8562 4.6507 -1.6852 2.5636 -3.2670 -4.1613 1.0405 -0.6208 3.1351 -0.6655 1.6986 -5.1322 -0.1125 -4.7607 -3.3121 4.9721 -2.1632 -0.8341 0.0264 0.5352 -4.6072 5.7226 -1.9629 -2.7608 2.7055 2.0274 5.4293 -4.6883 4.2705 1.0515 0.0121 -1.0841 -1.1334 1.4300 0.7672 1.0847 -1.3997 0.8985 -2.9255 2.9926 -0.8303 3.4498 -2.9958 3.0376 -3.8235 2.5314 -4.1732 5.4890 -8.9414 4.7796 4.0436 3.0443 -1.5380 5.6674 -8.3331 3.4738 5.2882 -8.1677 5.8610 2.6345 3.3910 -1.4934 4.4231 1.7559 -1.4687 5.6180 -6.9955 3.3410 5.2629 -6.7231 5.7219 1.7066 2.4252 -1.3687 3.4220 0.7127 -1.3350 -3.2940 2.2454 3.3627 2.9748 -3.8462 0.7684 -4.7602 0.9354 -5.7866 4.3821 -3.9321 5.0585 0.6609 -0.1238 0.3752 -3.5511 3.4858 -2.0316 -2.5500 1.5523 1.0709 2.5179 -2.9936 1.9361 -3.5382 1.7151 -5.3300 -4.3152 6.9613 -1.1816 -3.0019 2.6093 -6.4294 3.1603 -3.6017 4.2404 -2.8865 2.8005 -3.1979 -3.3021 1.8181 -0.2115 2.3125 -1.5575 1.5132 5.3947 -6.1569 4.5077 2.1178 1.0349 -1.2597
-7.5655 6.2228 -4.3268 0.9838 4.1333 -3.1000 -0.9783 4.5785 -1.6784 0.1325 -1.7480 3.8354 2.0913 -0.3804 4.5136 -4.7373 5.1778 -4.6920 3.1283 -5.9930 3.5904 -5.5291 2.2109 -6.7619 -3.4377 2.5290 2.3817 -5.2948 3.7714 2.8554 -3.7831 1.7137 -5.3471 4.7630 -3.3768 2.4409 -6.1656 0.6773 -2.6433 -2.7563 -0.2844 -2.3148 1.1469 -2.9472 0.7158 -7.0666 4.8803 -3.8492 -5.1242 2.6427 -0.1679 0.3085 -0.6632 -1.1729 -5.3898 2.0361 1.1893 -0.7358 2.3926 -2.8180 3.4960 -4.5263 5.4873 2.5117 -1.6334 -1.8924 -0.0737 0.1428 -2.3196 2.1626 -0.8770 0.3984 -3.1807 1.7793 -1.3500 2.5478 -3.1820 3.0853 -5.1051 2.6657 -3.1869 6.6573 -4.1883 8.3544 6.0313 0.0271 -3.6756 6.3510 -5.4664 7.7392 5.9851 -3.0839 7.9839 4.7259 0.2184 -4.2807 6.1465 -0.6497 -2.5190 5.3779 -5.5524 6.8148 4.9323 -3.1762 6.9875 3.6306 -0.2983 -3.6963 4.9654 -1.2166 -1.8916 -0.0018 3.5231 -2.1360 1.3667 -1.0224 3.3584 -5.9916 4.3351 -4.7631 3.9369 -4.8936 4.0885 1.8086 -0.6465 -0.9836 -4.5859 1.5772 -1.0925 -0.9187 1.2360 -1.8557 2.3160 -1.8690 2.5384 -5.7366 2.8653 -4.4711 -4.7339 2.8884 2.2244 -4.8858 2.2150 -5.5434 3.8082 -3.7415 3.1244 -5.3728 1.5793 -2.3823 -2.3665 0.7965 -1.8837 1.8042 -1.9966 1.1258 4.6457 -4.3600 6.4162 3.7553 -1.0421 -2.4538
-7.0603 1.8323 -2.0871 -3.3610 -3.3075 -3.2519 -2.4724 -1.7818 -4.9676 3.9920 -1.0172 -0.5232 4.8779 -3.2564 0.0688 -5.2635 4.5273 -0.1643 5.5363 -0.0535 4.5411 -6.7120 6.0655 -3.2375 -0.2981 6.3015 -3.3759 0.5613 6.1574 -5.4860 -4.4626 6.5492 -3.1633 3.6863 -2.7741 4.3523 -3.7194 3.1387 -4.8618 -2.3574 1.8291 -0.9568 1.7697 -0.2713 1.8910 -5.9584 2.4023 -1.2273 -0.8535 3.4406 -4.6155 -0.6148 -0.8362 0.0946 0.3640 4.1826 -4.1141 -2.9504 -0.9497 -2.6882 6.8903 -1.7370 3.4385 -1.2106 -1.6095 2.4179 -1.9333 -0.8130 -0.5164 0.8512 -2.3411 1.3616 -1.6504 1.6710 -3.1578 4.1518 -1.5365 2.4516 -3.7988 3.9846 -2.7005 9.5150 -4.8388 4.7892 -4.5376 -4.1715 3.2507 9.3430 -3.6256 5.5669 8.8041 -5.0227 3.6628 -4.7050 -2.9570 2.4738 -3.3161 -4.5317 3.6834 8.4902 -2.6733 5.1481 7.8845 -3.9941 3.2083 -3.6429 -2.1753 2.2115 -2.1682 -3.6862 3.4039 -2.4581 -2.1251 -3.4988 3.6895 -2.3319 0.1540 -5.8859 3.9023 -1.3895 5.6909 -1.4808 4.3217 -0.5193 -1.9517 1.1155 -1.7466 3.0805 -3.4522 -1.8115 -0.3425 -1.8913 3.2076 -2.1952 1.5835 -5.2064 4.2904 -2.6895 0.2226 5.6359 -4.4345 -5.3869 5.7532 -3.0280 4.4116 -2.0060 3.7229 -3.1887 3.3811 -3.7832 -1.9742 1.1606 -1.9125 1.8843 -1.4676 1.6443 7.7237 -2.8680 3.9269 -2.3242 -2.5565 2.6897
-8.7412 3.5572 -4.0281 -4.0208 -2.7327 -0.0568 -3.8320 -1.6981 -2.2841 2.1659 -4.2484 4.5929 4.2742 -3.0104 4.9917 -6.5245 5.3267 -5.0679 3.6668 -5.6483 -0.0458 -5.3867 3.3622 -7.9085 0.1891 4.3973 -0.6928 1.1703 5.4747 -2.4495 -3.5544 4.3173 -6.8917 4.6121 -2.4964 0.4789 -3.1062 1.4351 -4.7185 -2.2254 2.6886 -0.0151 0.8447 -2.6786 1.8281 -7.2899 3.1493 -4.1081 -1.3173 3.6185 -3.3079 -0.0888 0.2857 1.1974 -1.1702 4.9059 -2.5296 -3.3330 -0.3804 -0.2608 5.5300 -5.6685 1.5149 0.5369 1.3997 3.3253 -1.5411 0.3313 1.1572 1.6259 -0.6499 2.6384 -2.2226 1.7103 -2.1207 3.3890 -3.6850 2.0442 -4.2951 3.4057 -4.4328 9.8001 -5.3641 1.3377 -2.0421 2.0879 6.6711 9.0835 -5.2270 2.5924 9.1255 -5.6026 0.1982 -0.8620 1.2525 6.7999 -2.3703 2.6156 5.4786 7.7417 -5.3204 2.6161 7.6795 -5.7259 0.2276 -0.0860 1.0156 5.7272 -1.5252 2.3701 4.3225 -3.2456 -1.7461 -0.8947 2.9090 -2.9549 4.3505 -6.5894 3.8284 -5.2631 4.7867 -4.8752 0.4633 0.3647 0.0625 2.6273 -2.5739 2.8992 -2.8645 -1.9733 0.2854 -0.2334 3.0181 -2.5693 2.8881 -5.2278 3.2037 -5.5221 0.1946 4.9596 -1.9246 -4.6177 3.7078 -6.8173 4.2677 -3.5604 0.9894 -3.3398 2.4649 -4.0931 -2.1515 1.7000 -0.7382 1.7049 -2.0085 2.3920 7.0084 -5.5559 1.3828 -0.4354 1.5882 4.4360
-9.1332 2.2320 -4.8629 -3.6332 1.1237 2.2506 -4.6843 0.9480 0.0303 6.1003 -1.7609 2.1259 5.3178 -3.6244 0.6958 -7.4941 1.7069 -2.2251 3.2018 -3.4623 5.9952 -7.1467 5.5486 -1.4880 -0.6970 -0.0500 -5.1868 -1.9180 -0.3951 -7.0840 -5.5991 4.0818 -0.6142 1.4126 -3.5109 3.2234 -3.8856 4.9160 -4.0163 -0.6521 3.3624 -2.1569 3.1775 -0.0909 2.8999 -7.6913 2.5532 -4.5543 -3.1287 1.8225 -5.0542 0.7414 0.7904 -0.3772 -1.9495 1.7547 -5.9966 -2.5325 2.1381 0.2923 4.0823 -5.2662 4.6285 3.0655 1.6506 -0.2664 -0.1638 1.8448 0.0476 2.4543 -0.4929 0.7307 -2.4962 2.0764 -2.7171 3.6081 -2.7748 3.1972 -5.0685 3.1324 -3.1289 3.1212 -9.2871 3.5074 5.8576 3.2905 2.5348 4.1532 -8.5358 2.8162 2.4330 -8.7179 4.5128 6.2109 2.1589 1.6975 4.6581 3.8829 2.3963 4.4144 -7.2652 3.1718 2.7352 -7.3567 4.9160 5.3340 1.6948 0.7898 3.7019 3.3696 1.4304 -3.3712 0.9776 0.7725 4.9921 -2.2484 1.2226 -7.5262 2.9393 -3.1018 2.9054 -4.3516 4.8855 1.9981 0.8509 0.4602 -2.8149 2.7817 -3.9324 -1.4377 1.6455 -0.6302 3.6173 -2.2318 1.8607 -6.3135 3.8349 -2.9218 -1.5510 0.3259 -6.1686 -6.2950 4.4674 -1.5478 2.5522 -3.5144 3.6841 -3.9670 3.7304 -3.7026 -1.4576 2.4740 -1.8953 3.0741 -0.8236 1.9207 3.6705 -6.6471 4.2574 4.0173 2.3014 0.6752
-6.1999 5.4092 -5.5266 0.4896 0.2416 -5.0755 1.7958 1.7021 -3.5794 2.4403 -5.2012 2.0934 1.7112 -4.0735 4.1725 -5.2563 2.6035 -4.6588 5.9956 -1.3534 1.8785 -7.9019 1.9723 -2.1087 1.1135 4.4002 -0.6132 0.7226 6.5061 -1.3997 -5.8760 1.0460 -1.5184 3.0034 -0.0718 2.2978 -4.8921 4.2282 0.1949 -0.5196 1.8221 0.3776 2.1783 -2.7321 -0.3193 -5.6913 5.0045 -4.1657 -1.9414 4.7654 -1.0931 -1.7125 -1.2831 -0.5183 -0.9611 5.3628 -0.1095 -0.5398 1.1521 -3.0306 5.2919 -1.9830 4.1055 -1.2951 -3.6529 -1.0306 -1.7793 -0.4448 -1.7022 0.0644 -2.4379 0.5918 -2.2539 2.3554 -1.0606 3.2780 -2.3695 2.1424 -4.5649 3.3843 -1.9324 5.4918 -0.1046 7.9345 1.6410 -6.3588 -2.5608 6.5836 0.0193 6.9861 4.3847 -0.7942 7.6059 1.1338 -5.2783 -3.3878 1.1506 -6.5484 -1.3231 6.4894 -0.5576 5.7758 4.2799 -1.4167 6.2982 0.1755 -4.4600 -2.9166 0.1264 -5.6597 -0.8089 0.7372 0.6295 -3.6389 1.5888 -4.0934 2.6676 -6.0803 3.5779 -3.8412 5.0935 -1.0097 2.9657 -0.6391 -2.3349 -0.6643 -2.6660 3.6003 -0.4540 -0.7363 0.5709 -1.6481 1.8832 -2.7250 2.0846 -5.9487 3.3327 -2.3457 0.3622 5.5138 -0.7852 -6.5320 1.9884 -1.9522 3.6855 -1.0843 2.4389 -4.1564 3.7639 -0.6730 -1.1398 1.6484 -0.6692 1.4293 -2.6356 0.6478 5.2889 -1.2929 5.4174 -0.3261 -4.6438 -1.5652
-6.2528 4.1543 1.6266 0.9908 -2.4461 -3.0324 1.3785 -1.4487 -5.2366 1.6864 -5.5355 2.4548 2.1169 -4.4324 4.6342 -5.8811 5.8858 -0.8277 6.1741 -3.6178 0.7729 -7.5992 3.5718 -3.5016 1.3753 4.6769 -3.9975 0.5213 5.7067 -5.8444 -6.0084 5.1397 -4.0747 4.4653 -1.2293 2.2433 -3.8959 1.9142 -3.4902 0.6236 2.8788 -1.7273 1.4813 -2.9658 0.2656 -5.5543 3.7158 0.3619 -1.6466 3.9726 -4.2273 0.1034 -0.0549 0.1224 -0.8943 5.2519 -3.9496 0.2902 -0.1141 -3.4975 6.1062 -4.1980 3.1266 -1.6402 -0.4125 1.8233 -0.4595 -0.1781 -1.2086 0.4329 -1.6683 1.8832 -1.2933 2.0804 -2.7688 3.5495 -3.3448 2.0395 -4.2418 3.9081 -2.3563 8.4514 -3.2027 6.5674 -5.5728 -1.9884 1.2235 9.0581 -3.2554 5.2497 7.1322 -3.4214 6.7106 -5.0056 -1.0375 0.2842 -4.8452 -2.4190 2.2693 8.3044 -3.5382 4.1721 6.3178 -3.7270 5.5476 -3.7561 -0.5736 0.4673 -3.4984 -1.9158 2.4704 1.3416 -1.1660 -3.7538 1.5833 -4.2476 3.2363 -6.1418 4.3956 -0.8550 5.9562 -3.0896 2.1092 -0.5552 -1.0842 1.0088 -2.0107 3.3200 -2.9128 0.4206 0.5258 -2.1309 2.2345 -3.0578 2.5618 -5.6573 3.7295 -2.1305 0.3818 5.2400 -4.7243 -6.4089 4.2452 -3.3369 4.5917 -2.4485 2.1463 -3.4691 2.9352 -2.9589 -0.0515 1.9606 -2.1842 1.3641 -2.5814 1.4249 6.8764 -3.7705 4.3246 -2.9695 -1.0380 1.5993
-7.3804 -0.5459 -1.2793 3.5199 3.5922 -2.3799 2.4120 5.5787 -1.4407 0.7922 -5.0310 2.9042 1.0992 -3.6750 4.9560 -7.7142 2.1759 -2.5252 5.9079 -4.7619 2.1147 -6.3127 1.3752 -6.1172 -2.3605 8.1282 -2.7914 -1.6113 7.2621 -0.8169 -6.2600 3.5282 -5.2947 4.7703 -1.8128 3.0280 -2.8273 2.2668 -4.1524 -1.5204 4.0083 0.3020 2.0631 -2.9552 0.4016 -6.2657 0.2273 -1.9411 -2.7387 5.0771 -2.8804 0.2623 0.8288 0.4762 -3.3725 6.1589 -2.0382 1.1317 3.5149 -1.8239 5.1907 -4.9918 4.4206 -0.9616 -1.2529 -0.1475 0.3715 1.4706 -0.8234 0.8484 -1.2986 1.4802 -1.6851 3.1508 -1.8465 3.3090 -3.5839 2.7319 -4.8629 2.6491 -3.1085 7.0217 -4.3120 8.2268 -0.5906 -3.5473 -3.7495 7.7467 -4.9836 7.1632 5.7756 -3.8554 8.0092 -0.3170 -2.1221 -3.7489 -0.9597 -4.1631 -2.6122 7.1703 -5.1566 5.9604 5.1492 -4.0485 6.7134 -0.4480 -1.4135 -2.6137 -1.0852 -3.4012 -1.3821 2.4687 4.0711 -1.4085 0.9504 -3.6341 3.4555 -6.7843 1.1071 -3.0577 5.6086 -4.0283 3.3330 0.3715 -0.6663 0.2763 -2.9485 3.7296 -2.2281 0.3904 2.9157 -0.6477 2.0749 -2.8396 2.8203 -5.6262 1.6783 -3.8560 -2.3473 7.2161 -1.7905 -6.1017 2.3218 -5.1391 4.5321 -3.0187 3.0231 -3.5003 2.7899 -3.2693 -1.0363 3.4189 -0.6610 1.6846 -2.3984 1.4282 5.8230 -4.6633 5.7246 -0.8275 -2.0808 -1.3777
-7.5899 5.0965 -3.7307 0.7074 4.8288 -1.7836 -1.3869 4.5067 -0.5260 -0.1639 -1.9791 3.1337 1.5711 -0.8201 4.4775 -3.8433 5.5070 -3.7781 2.7336 -6.2085 2.5566 -4.7996 2.8585 -6.5383 -4.8806 -0.0725 2.3691 -6.8906 1.0099 2.4643 -2.9391 2.6435 -5.1917 4.6690 -3.5212 2.5002 -5.4826 0.5850 -3.4546 -2.0660 -0.2220 -2.6758 1.5976 -2.7877 0.2136 -6.2165 5.2617 -3.1276 -5.2322 1.4465 -0.2691 0.8861 -0.3725 -1.3493 -5.9969 0.2967 0.3464 -0.6560 2.8151 -2.1802 2.8605 -5.3893 4.8297 3.2928 -0.8135 -1.8793 0.4574 0.6914 -2.2387 2.5392 -0.6709 0.4242 -2.9793 1.3079 -1.1963 2.3775 -3.3459 2.7865 -4.6336 2.6938 -2.9934 5.3075 -3.9385 8.0324 6.4190 1.8385 -3.1170 5.6889 -5.1292 7.2947 4.1917 -3.2675 7.6979 5.1520 1.7947 -3.8240 6.6112 1.0681 -2.0315 4.9210 -5.5686 6.2815 3.3637 -3.7393 6.6022 4.1757 0.9693 -3.4067 5.5612 0.1685 -1.5854 -0.1979 3.8099 -1.1395 1.1443 -1.2268 3.0902 -5.1536 4.8351 -4.1124 3.5068 -5.3744 3.4614 2.3202 -0.1703 -0.9145 -4.3556 0.9165 -1.3769 -0.6339 1.4159 -1.5993 2.2649 -1.9653 2.3891 -5.0534 3.3250 -4.2203 -5.9973 0.4713 1.8281 -4.1265 2.9127 -5.3383 3.5932 -3.9912 2.8644 -4.8886 1.3673 -2.7158 -1.9451 0.7293 -1.9098 2.0869 -1.8900 0.8925 3.7220 -4.8349 5.9084 4.3863 0.1279 -2.2404
-7.7534 2.9778 -6.0513 -4.1568 -0.7186 0.4465 -3.9313 -0.4866 -1.9882 1.6272 -3.1742 5.0000 4.0437 -2.6711 5.1681 -6.6299 1.6905 -3.5638 2.4509 -5.8611 0.6276 -6.7389 4.4862 -1.2395 -1.3792 0.6840 -7.5825 -0.6855 -0.2769 -5.6293 -4.8104 3.2935 -0.8550 4.3634 -3.1861 0.6975 -2.8287 5.1680 -3.0807 -0.3780 3.3582 -1.3445 0.6912 -1.8798 2.0733 -6.4876 3.4188 -5.3554 -1.9919 2.6145 -5.2521 0.6978 0.8773 0.5907 -0.7028 2.1205 -5.8650 -2.7281 1.0485 -0.4756 4.0560 -6.2267 2.4083 1.9296 2.2959 2.2081 -0.6306 1.4641 0.5594 2.1911 -0.1158 2.2247 -1.5629 2.1172 -2.8998 2.8494 -3.5729 2.4031 -4.1373 3.2920 -3.4660 8.0273 -7.8045 2.6648 0.2797 4.7119 5.3363 7.0629 -8.3764 1.7436 7.6958 -6.7338 3.4078 -0.3711 4.6320 4.0415 1.3904 3.9937 5.5785 5.8305 -7.8465 1.6423 6.3638 -6.1646 3.3043 0.1444 3.8497 3.0761 1.9483 3.1500 4.5366 -3.2050 -0.3697 -0.6706 2.7446 -2.2851 4.5063 -6.5635 3.1716 -3.8646 3.7413 -5.4473 1.1516 1.2443 0.9570 2.0031 -1.7595 3.1750 -3.8669 -1.2402 1.1696 -0.7314 2.8961 -2.2560 2.9977 -5.4215 3.8703 -3.1381 -0.9139 0.7109 -6.3108 -5.6002 3.8189 -1.6331 3.6973 -3.9567 1.3863 -2.9530 3.9987 -3.4367 -1.0047 2.3487 -1.6544 1.7893 -1.4286 2.3851 5.4693 -6.6891 2.4470 1.3403 3.0628 3.3393
-5.6680 6.1942 0.5693 -0.4856 -3.9867 -2.4041 -1.9784 -3.0328 -4.1114 1.0303 -0.9922 4.6177 3.4502 -1.2943 5.0180 -2.9897 4.8443 0.3056 1.1774 -5.9324 3.0492 -1.6738 6.5851 -2.7045 -7.9098 0.8446 -3.5442 -6.3863 0.3233 -5.1621 -1.0129 4.3802 -2.6672 3.4939 -4.2223 1.4433 -3.7354 3.3104 -4.5723 -1.3536 0.9356 -4.6296 0.5583 -1.5366 1.3927 -5.2240 5.4196 -0.6487 -5.0275 1.0430 -2.3201 1.3450 -0.1414 -1.3145 -5.8757 -0.0922 -2.8451 -1.1233 -1.6086 -2.2886 2.9348 -5.4661 4.6654 2.9169 1.5857 -0.5480 0.0640 0.4412 -1.6834 2.4813 -0.3679 0.8300 -2.6214 0.8266 -2.6915 2.1208 -3.1691 2.9757 -3.5360 3.5073 -2.2687 6.8225 -6.9154 5.7619 2.0511 5.6502 0.4950 6.1443 -5.8923 6.5361 6.2190 -7.4556 4.6886 1.4125 5.0266 -0.6486 2.9213 4.9492 1.2427 4.9234 -5.4662 6.1666 4.8933 -7.0069 4.3000 1.6784 3.7436 -0.9548 3.2119 3.5654 0.9115 -0.7963 -2.7541 -3.2160 2.4036 -0.9409 3.9894 -3.7254 5.5006 -0.8427 2.5677 -5.5439 3.2005 1.8785 0.5787 -0.0908 -3.8597 1.3263 -3.2412 -0.4924 -0.3257 -2.7886 2.5471 -1.8038 2.7486 -3.3299 4.9360 -2.1994 -6.7180 0.3796 -3.9874 -1.8816 5.2353 -2.5265 2.7914 -4.2530 2.4522 -3.7127 2.8157 -3.4482 -1.5226 0.5383 -3.4784 1.7297 -1.2346 1.6044 4.2791 -6.0257 4.9880 2.5922 2.9742 -0.1258
-9.0044 3.0782 -3.5235 -4.0851 -2.1317 0.2196 -3.9953 -1.2989 -2.1107 4.6772 -1.3163 4.8017 5.8744 -0.6363 2.7422 -7.0024 5.0351 -4.7623 3.6532 -6.0042 2.7378 -6.1697 3.0556 -7.7185 0.3215 5.2231 -1.7299 0.4871 6.2863 -3.7428 -4.2365 4.0798 -7.0017 3.5454 -3.6530 0.4223 -3.3174 1.4449 -4.7622 -1.8792 3.1733 -0.3202 1.5127 -2.2343 3.5625 -7.5326 2.8222 -3.7360 -1.6336 3.9010 -3.7239 -0.0815 0.8523 1.1642 -1.5898 5.2641 -3.0758 -3.3785 0.2004 -0.2479 5.9031 -5.1482 2.4902 0.2420 1.1223 3.6131 -1.5343 0.8871 1.1122 1.7169 -0.3000 2.2890 -2.1286 1.9989 -2.3015 3.9356 -3.0982 2.6375 -4.6422 3.3202 -4.4194 9.1930 -6.0999 -0.0617 -1.5051 -0.7645 7.0419 8.4539 -7.1434 0.6262 8.8354 -4.8112 0.0819 -2.2785 -0.5828 5.8263 -0.2263 -0.3513 7.0946 7.4055 -6.8231 1.4042 7.7030 -4.4636 0.9221 -1.7278 0.0300 4.7629 0.3743 0.2932 5.9405 -3.3632 -1.2244 -0.7445 4.5209 -0.8204 3.3838 -7.0271 3.5359 -4.9700 4.5473 -5.2947 1.8374 0.3572 0.1655 2.4397 -2.7113 3.0680 -3.0738 -1.9667 0.7497 -0.2725 3.6304 -1.6931 2.5208 -5.6724 2.9822 -5.3765 -0.1578 5.6541 -2.9206 -5.2646 3.4553 -6.7585 3.9502 -3.9419 1.5461 -3.5751 2.4814 -4.1595 -1.9921 2.1125 -0.9281 2.1733 -1.4718 2.8639 7.0071 -5.4335 1.5422 -0.3418 0.4680 4.8153
-6.9128 -1.7812 -2.4104 -0.2816 5.4726 3.2110 -2.7265 5.3613 3.4711 4.2884 -3.3329 -0.2169 2.3974 -4.8345 0.3164 -6.9384 0.6668 -4.3082 5.4077 -3.0748 4.7918 -3.5647 -0.4240 -6.2512 -3.2556 7.4384 -4.3517 -3.2518 7.6687 -2.0811 -4.4682 1.6976 -6.2892 2.1709 -2.6809 4.3989 -2.0134 1.7071 -3.2107 -3.7483 2.0081 0.2613 3.5279 -0.4473 1.5023 -5.8552 -0.7128 -2.5437 -3.0019 4.6344 -3.1023 -0.2916 1.0700 0.8284 -4.1111 5.6583 -3.0963 -1.6502 4.4077 1.4737 4.5606 -5.2084 4.0087 1.2728 0.6984 -1.0855 -0.4259 2.5043 0.6328 1.3078 -0.7378 0.8941 -2.4934 3.4179 -1.0882 3.5373 -2.9523 2.5500 -4.3126 1.7252 -3.5377 2.8175 -8.6198 5.9120 5.4453 0.7755 -2.0535 4.0375 -8.0235 6.4254 2.1998 -8.0803 4.8460 4.8151 1.9187 -1.4181 4.7065 -0.2923 -2.4034 4.5561 -6.9341 5.8313 2.7628 -6.9087 4.1987 3.4938 1.9067 -1.1649 3.2835 -0.3124 -2.1171 -1.5093 4.6323 2.9574 2.8451 -3.3956 0.2262 -5.7594 -0.2207 -3.9707 4.2127 -3.8926 4.6679 1.0950 0.6138 0.4231 -3.3709 3.4557 -2.2314 -1.7224 2.9321 1.1443 2.5622 -2.6655 1.5253 -4.4190 0.4515 -4.2082 -3.4923 7.0176 -3.0864 -4.1740 0.6726 -5.6829 3.1928 -3.1173 3.8737 -3.1220 2.1987 -3.0267 -2.7682 2.7246 0.0720 2.5526 -1.1689 1.3136 3.8884 -6.3506 4.6794 2.7030 0.7327 -1.4997
-5.9171 1.3731 2.6979 3.8892 2.4829 -3.4563 3.2907 4.2738 -1.8760 1.9204 -5.5280 1.3752 0.1193 -4.7636 2.8965 -6.7949 3.3564 0.3936 5.3097 -2.6031 3.9875 -7.2796 0.4006 -2.0549 -2.9297 7.1839 -5.0493 -1.1166 7.1229 -3.6640 -6.7786 2.4432 -2.9949 2.4643 -0.9552 3.6117 -3.3729 1.4836 -2.9724 -0.7662 2.8911 -0.1899 3.1524 -2.5084 0.0772 -5.2003 1.7533 1.4254 -2.9841 4.5282 -3.4788 -0.0686 -0.2502 -1.5131 -3.1453 5.9700 -3.0607 1.5453 2.7882 -2.7766 3.6644 -3.6784 5.4147 0.7400 -2.3703 -2.5105 0.2870 0.7479 -2.5064 0.9100 -1.9435 -0.1303 -1.2582 3.2088 -2.4328 2.7459 -3.0727 2.7154 -4.5769 2.7031 -1.4037 1.8244 -3.0832 9.2368 4.2531 -3.1617 -4.8275 1.3286 -4.0815 8.3067 2.8712 -2.3095 8.8995 3.9458 -3.9452 -3.6450 3.4247 -2.1764 -5.2175 1.9080 -4.2265 7.1014 3.5151 -2.4864 7.6109 2.8314 -3.6866 -2.9385 2.2272 -1.8882 -4.4474 2.9788 2.8644 -2.3150 0.9483 -4.4150 1.6850 -6.1883 1.9730 0.3025 4.0309 -2.4241 4.6529 0.9881 -1.3287 -1.4353 -2.6139 3.6776 -2.2862 0.7159 1.9591 -1.8214 1.5943 -3.0544 1.8489 -5.5420 1.6895 -1.0433 -2.2662 6.8075 -3.9302 -6.5876 1.5894 -2.1347 2.9991 -2.0620 3.6177 -3.5276 2.4775 -2.2710 -0.5070 2.7299 -1.3805 2.0049 -2.4867 0.5103 3.0396 -3.3907 6.7342 1.9539 -2.5989 -3.3382
-4.8030 3.2762 -7.5140 1.2261 2.2673 2.4076 0.4322 4.5678 2.7985 2.8271 -5.2522 0.3533 1.5264 -5.5481 2.4437 -2.5902 2.1065 -5.7784 6.2479 -2.5650 3.1733 -4.4126 -0.9500 -4.5491 -2.6204 7.0793 -0.1848 -3.2961 8.2157 -2.0454 -3.0086 -0.0975 -2.9366 3.2041 -1.5216 3.8646 -5.8838 2.2531 -1.8663 -3.8515 2.0385 1.0342 2.9471 -1.7713 0.0002 -4.8934 3.0300 -6.0278 -3.8629 5.0248 -2.0494 -0.9487 -0.1857 0.2042 -4.4592 6.2221 -1.3505 -0.5816 3.2152 1.0066 5.1367 -4.3957 4.3083 -0.1534 -1.5104 -1.7244 -0.9286 1.1891 -0.2608 0.6874 -1.9205 0.5160 -2.9136 3.2284 -0.7215 3.5472 -3.1585 2.2620 -4.0082 2.3874 -3.2206 4.6069 -5.4348 8.4230 2.6706 -0.5824 -4.8052 5.7982 -4.7321 7.9827 3.6402 -5.7437 7.5403 1.8698 0.4659 -4.1993 2.5411 -1.8551 -4.3904 5.9382 -4.3915 6.6897 3.7883 -5.3721 6.1441 0.9821 0.1628 -3.2356 1.5921 -2.1818 -3.3420 0.0203 3.1757 2.3901 1.8178 -4.6274 1.2855 -4.0691 1.8300 -5.6120 5.1420 -2.9053 4.0527 0.2372 -0.9007 -0.3940 -4.1402 3.7722 -1.2516 -1.4781 2.0182 0.7962 2.1959 -3.2433 1.7717 -4.4329 1.4139 -4.1970 -3.4123 7.2834 -1.2645 -3.8452 0.0707 -3.8186 3.8645 -2.4484 3.4002 -4.7824 2.7277 -2.1328 -2.8730 2.4268 0.4000 2.0243 -2.2310 0.6651 4.8868 -4.7108 5.7378 0.8502 -1.2117 -2.7789
-0.3306 -0.7316 -3.6443 -2.9841 3.9755 4.0470 -5.0461 3.0773 3.0474 -0.6711 -3.3162 2.0811 0.7076 -3.7993 4.0874 -4.0490 -1.0701 -4.2169 3.8326 -5.1225 -0.2917 -2.5767 0.5441 -7.2346 -6.5539 4.5736 -4.1980 -5.9318 6.7638 -4.3693 -4.2560 1.8991 -6.4387 4.5054 -2.7727 1.9061 -1.8100 3.5613 -4.0122 -3.5849 1.1798 -0.8499 1.2806 -1.3447 0.1226 -1.7889 -0.7565 -3.2550 -3.8330 5.0897 -2.6636 -0.3575 1.2127 0.7653 -5.2818 5.4600 -2.4464 -3.0507 3.4815 1.6437 3.4554 -6.1125 1.8902 2.0809 1.7587 0.5930 -0.9908 2.5209 0.7616 1.2829 -0.0479 2.0552 -2.9025 3.3684 -1.2261 2.3181 -3.4500 1.5586 -3.3295 1.8040 -3.9299 5.8955 -8.1061 4.7891 5.6222 2.8484 2.7482 6.2113 -8.1883 3.3746 4.8691 -7.3438 5.2061 4.4832 3.7470 2.6893 5.5724 1.6561 2.1277 5.4592 -7.5262 2.4771 4.0530 -6.6329 4.2373 3.3767 3.3906 2.0120 4.3828 1.2751 1.3872 -3.5384 3.0403 3.0018 0.4133 -2.8022 2.9960 -2.6671 -0.5119 -4.4609 4.1305 -4.9971 1.1246 0.9696 1.2499 1.4925 -3.6466 3.6066 -2.4381 -2.4279 2.3232 0.8971 1.6785 -2.3760 2.2791 -2.6605 0.9487 -4.8770 -5.9306 5.6986 -3.7713 -3.2824 1.1791 -6.2374 3.6862 -3.6291 1.5784 -2.8067 3.0221 -3.5437 -3.0394 2.2161 -0.4769 1.3999 -1.2247 1.3376 4.3402 -6.7117 2.9251 3.3216 2.1018 1.3417
-5.4533 -1.4394 -6.2842 -2.3512 2.1094 4.5256 -4.2925 2.1416 3.0210 4.7515 -0.8565 3.7111 5.7989 -2.5531 2.2431 -6.0795 1.3885 -5.3132 1.2951 -4.3322 5.2857 -2.4132 2.2893 -7.1834 -4.4022 7.3597 -0.6598 -4.7519 5.8336 1.0020 -3.5055 3.9549 -6.0204 1.7740 -4.6499 2.0326 -1.6392 2.6219 -3.2126 -3.4451 0.4652 -0.5554 1.6244 -0.5897 2.6171 -4.5648 -0.5847 -5.4117 -3.4813 4.6371 -1.7357 0.0846 0.0950 0.0028 -4.8344 5.1529 -1.3080 -2.0059 2.1852 2.0989 3.5333 -5.2263 4.9888 1.9154 0.3182 -1.6314 -0.4177 1.3656 0.4938 2.2255 -0.9670 0.4057 -2.6957 2.6610 -0.6246 2.8459 -2.9825 3.2272 -3.8296 2.2431 -3.8922 5.3308 -9.0308 4.1851 3.8806 3.9544 -2.7454 6.0573 -7.7925 3.9725 4.0692 -9.0009 4.6505 2.4386 3.9120 -2.5826 4.6198 2.8562 -2.5087 5.4646 -6.6117 4.2251 3.4371 -7.7275 4.9445 1.8374 2.7687 -2.2065 3.9709 1.6205 -2.1078 -2.8817 1.6325 3.1957 4.6723 -1.5585 2.3754 -4.7241 0.8788 -5.7500 2.1761 -5.0168 4.3557 1.5859 0.2024 -0.1566 -3.4886 3.1267 -1.7315 -1.7652 1.1619 1.0088 3.3349 -2.2182 2.1020 -3.5570 1.6738 -5.1901 -4.6542 6.1177 -0.1820 -3.1843 2.7784 -6.1510 2.2437 -4.2135 3.0815 -2.8479 2.6371 -3.0067 -2.7317 1.3729 -0.1354 2.3005 -1.1690 1.7719 4.0936 -6.5760 4.7079 2.6360 1.5807 -1.9453
-5.4841 8.1016 -3.0545 1.6677 2.6937 -2.4115 -0.1858 3.3925 -0.9408 4.0878 -4.8690 1.2311 2.2277 -5.0329 2.8635 -3.3439 5.9472 -2.2796 5.4841 -0.3712 3.3811 -5.1574 4.2916 -5.8361 -4.9626 2.2731 3.3690 -3.4028 0.7667 2.6576 -3.3674 3.2195 -4.8533 2.1996 -0.4460 3.0368 -6.2455 1.8902 -2.7707 -3.3106 -0.1778 -3.0512 3.4508 -1.7253 -0.2992 -5.6878 6.6451 -2.7121 -4.8627 2.1935 0.2543 -0.4454 -1.8246 -1.8376 -5.3469 1.2289 1.3098 -0.5518 1.6422 -2.6522 4.6373 -1.9943 4.9701 1.2908 -3.2925 -2.7966 -0.6543 -0.7538 -2.7948 1.3199 -2.6386 -0.4444 -3.2076 1.3261 -1.2891 3.5096 -2.2354 2.3585 -4.6041 3.4833 -2.4059 3.1209 -1.6623 8.9518 5.4970 -3.7942 -3.4019 4.1582 -0.7675 8.4739 2.6017 -2.5946 8.1328 4.8431 -2.5525 -3.7725 4.7734 -4.8200 -2.9195 4.6085 -0.8754 7.2122 3.0821 -2.7083 6.7669 3.5118 -2.4239 -3.6312 3.3412 -4.6721 -2.7372 0.4370 2.2304 -1.6740 2.6855 -4.4195 1.5636 -4.5272 5.8190 -3.2128 4.3023 -0.7943 4.1135 1.0193 -2.1924 -1.7841 -4.6258 1.4794 -1.0563 -1.1683 0.3929 -2.0623 2.5047 -2.9159 1.5855 -4.9751 4.3907 -3.4647 -4.4508 1.3728 2.4961 -4.3872 3.8949 -4.7645 3.2212 -1.1234 3.1209 -5.2501 2.2893 -2.1712 -2.6703 0.4536 -2.2170 2.5137 -2.3509 0.1861 4.0411 -1.8757 6.3237 2.7372 -3.5142 -3.0600
-0.2369 -0.5320 -6.8511 -5.7482 0.3002 3.6013 -7.0528 -0.2956 1.6004 0.3148 -4.8227 1.9024 1.5230 -4.4393 4.0340 -1.1951 2.3928 -6.6844 4.7767 -4.3668 -0.6518 1.5895 3.5379 -3.9330 -6.2955 6.0775 -2.8908 -7.3078 4.0338 -2.8134 -0.3135 4.6861 -4.5493 4.6192 -2.0736 1.7396 -1.3133 2.8501 -1.5780 -3.8005 -0.2747 -1.7071 1.0016 -1.8557 0.1238 -0.7192 0.1975 -5.6205 -4.1145 3.9854 -2.3320 -1.4251 -0.1667 0.9520 -5.0119 4.2218 -3.5239 -4.8996 0.8702 1.3663 4.9814 -5.5190 1.4792 0.6020 1.3193 0.9762 -2.5048 0.7771 1.1859 0.6113 -0.8167 2.1660 -3.8901 1.9497 -1.0657 2.8394 -3.4943 1.3249 -1.7583 2.4204 -3.8165 8.0091 -6.3143 4.4069 1.0279 4.9633 3.1883 6.6184 -6.6570 4.6426 8.3718 -5.7308 3.2508 1.9653 3.8687 3.3653 0.0073 4.8426 2.3211 5.6880 -6.3762 3.7126 7.3715 -5.4526 2.2361 1.8120 2.7302 2.6657 -0.1581 3.6142 1.5640 -5.6609 -0.1570 2.1657 0.8976 -3.7835 2.8286 -0.3378 1.6598 -5.6739 5.0855 -4.1954 0.7564 -0.2103 0.2886 1.7310 -3.5946 2.5657 -2.3362 -3.7374 0.2383 0.6316 1.8699 -2.8308 2.1631 -0.3991 2.2763 -4.2865 -6.3289 4.7309 -3.0336 0.2616 3.6357 -4.2833 4.1721 -3.1429 1.3292 -2.0949 2.6170 -2.4936 -3.8055 0.5928 -0.8368 1.1237 -1.8020 1.3433 6.0754 -5.7359 2.4659 0.6984 2.5918 1.7414
-7.4939 4.7146 -3.1081 1.0953 -1.0490 -4.4771 2.4215 0.9607 -3.9397 3.8373 -3.8375 0.1555 3.1386 -5.0135 2.2212 -6.0310 1.2696 -2.6864 4.7373 0.5988 2.7318 -6.3806 2.8569 0.9139 0.7629 4.7132 -4.5341 -0.2454 6.4346 -5.6450 -4.5740 1.5717 0.2696 2.2731 -1.1048 4.1538 -3.3833 5.0503 -0.2737 0.0671 2.7857 -0.3538 1.8749 -1.1319 0.0038 -6.5949 3.5508 -3.4435 -1.9474 4.9154 -3.2670 -1.2273 -0.5483 -0.1002 -0.8483 5.9470 -3.3652 0.0849 0.7846 -3.1959 5.7144 -1.3608 3.7782 -2.1608 -2.8130 0.0495 -1.3734 0.0040 -1.4347 0.0798 -2.3292 0.8640 -1.4774 2.8532 -2.0799 3.3065 -1.8777 2.2294 -4.1235 3.4257 -1.7562 7.1681 -2.2374 7.7073 -2.1958 -6.8680 -1.3247 7.2393 -0.8892 7.1758 6.5909 -3.2159 6.9873 -2.3912 -5.7707 -2.2551 -1.9700 -6.6152 -0.0236 6.7461 -0.6206 5.9541 6.0601 -2.9277 5.6662 -2.3464 -4.4987 -1.8182 -1.9308 -5.2432 0.4500 1.3566 0.0160 -3.4425 2.7249 -4.0247 1.1601 -6.4151 2.6594 -2.2373 4.5240 -0.4298 3.7349 -0.8842 -2.0224 -0.1746 -1.8595 4.2326 -1.9225 -0.2123 0.8373 -1.7154 2.2327 -2.7327 1.7813 -5.4533 3.2635 -1.2309 -0.1065 5.7453 -4.6455 -5.3965 2.4520 0.0402 3.2471 -1.1611 3.4060 -3.1935 4.2920 -1.2214 -0.5161 2.2534 -1.2952 1.4085 -1.9633 0.7760 6.1251 -1.6785 5.1718 -2.0846 -4.2235 -0.4141
0.3006 -1.4156 -2.9910 -5.4958 2.4859 3.5173 -6.8146 1.5693 1.6557 -0.3256 -4.5055 1.8980 1.0764 -4.4584 3.9427 -2.4966 -0.8367 -5.4140 4.0922 -4.9422 -0.6685 0.4473 1.1558 -6.5058 -4.7248 7.3520 -2.4569 -6.2782 5.8384 -1.7452 -1.3706 2.5621 -6.3998 4.3643 -2.4142 1.4856 -0.8012 3.3768 -2.9436 -3.8295 0.5613 -1.5600 0.7345 -1.7686 0.1108 -1.1404 -1.1727 -3.3667 -3.2890 4.7225 -2.5244 -1.3741 0.3387 1.0895 -4.5333 5.1580 -3.2597 -4.4816 2.2916 1.2988 4.3297 -5.8729 1.5603 0.8810 1.4654 0.9483 -2.1819 1.5435 1.2087 0.6216 -0.6554 2.1489 -3.1267 2.7409 -1.1723 2.4098 -3.6338 1.2675 -2.0598 1.7018 -3.9505 7.6526 -6.8781 4.0668 2.0590 4.9597 3.1288 7.7187 -7.0868 2.6322 6.5652 -6.3069 4.6147 0.7862 4.9114 2.4331 2.8614 3.8804 3.1422 6.6816 -6.7338 1.8516 5.4422 -5.9311 3.7740 0.4254 3.7998 1.7678 2.4743 2.6801 2.4215 -5.4369 1.6421 2.2680 0.4920 -3.6355 2.8225 -1.2115 -0.4825 -4.7070 4.5307 -4.6570 0.6862 -0.0344 0.5697 1.7542 -3.1806 3.2174 -2.5304 -3.5226 1.2828 0.7005 1.5685 -2.8301 2.1226 -0.9651 1.0093 -4.5811 -5.2839 6.1197 -2.3968 -0.6939 1.6575 -5.9205 3.7751 -3.4532 1.1936 -1.8672 2.8041 -3.1420 -3.5158 1.4709 -0.7963 0.9421 -1.7110 1.3178 5.4991 -6.1274 2.4441 1.3040 2.6405 1.7583
-6.4247 1.2783 -6.9972 -3.9188 1.9418 2.9923 -4.6893 1.3683 0.7334 2.7898 -2.1802 5.1837 4.9769 -2.5028 4.0669 -5.8208 -0.6473 -3.8005 0.5795 -5.6108 2.1132 -8.1192 2.2216 -3.0921 1.3216 2.1252 -3.6089 1.0516 1.5464 -5.8020 -6.3450 2.2391 -1.6247 2.6816 -3.7629 0.3365 -4.4069 4.3212 -3.8042 -0.4975 3.7749 -1.2500 0.7610 -1.0812 2.6803 -5.6411 0.4383 -6.0181 -1.6855 2.2949 -4.2789 0.7322 1.3522 0.6925 -0.4835 3.0762 -4.7548 -2.6263 2.6890 1.0393 2.8295 -6.2331 2.7780 2.8830 2.4458 1.2604 -0.2560 2.3553 1.0525 2.5235 0.0970 1.7363 -2.3079 2.4991 -1.9360 2.3194 -3.3435 2.5843 -4.5369 2.0135 -3.6366 5.7608 -8.9963 1.3307 3.5037 5.5965 4.0932 4.3500 -9.3347 1.3059 6.1556 -7.7849 1.7628 2.3448 5.6035 3.2198 4.3778 4.5756 4.0466 3.4349 -8.4431 1.7271 5.1699 -6.8237 2.2231 2.1498 4.5941 2.3521 4.1691 3.4865 3.1091 -3.4732 1.5730 1.5998 3.6405 -1.8065 3.9919 -6.2396 0.5411 -4.6351 1.9768 -5.5798 1.7139 1.8771 1.3916 1.6860 -2.4242 3.1056 -3.2394 -1.4560 2.1297 0.2576 2.9763 -2.0564 2.6517 -5.9306 1.8805 -3.9894 0.6942 2.1612 -4.8088 -6.7856 2.1127 -2.7623 2.3690 -4.1444 1.4628 -3.8874 3.2284 -3.5907 -1.3399 2.9081 -1.0349 1.9465 -0.9842 2.3773 3.8608 -7.1334 2.1966 3.0888 3.4830 2.3068
-5.9160 -1.2173 0.8530 2.5694 6.1709 -0.3190 0.4765 6.3670 0.9658 -0.6497 -1.5665 3.0377 1.2050 -1.3568 4.6717 -7.0076 0.5163 -1.3931 1.3183 -6.1667 1.5006 -5.3565 -1.4477 -4.4497 -4.7461 6.1480 -5.3397 -6.2633 5.1572 -3.9490 -6.0376 0.7491 -4.5957 3.7272 -3.9984 2.0225 -2.2971 1.0900 -3.4226 -1.8608 2.5306 0.0852 1.0406 -1.7995 0.0101 -5.0863 -0.5068 -0.1888 -3.2229 4.0585 -3.7050 1.1302 1.0997 -0.7179 -3.9488 5.3201 -3.3031 0.6480 4.7481 -0.8957 1.3036 -5.7179 3.8813 3.3568 0.1533 -1.3897 1.1049 2.4048 -1.3566 2.4894 -0.1899 0.8589 -1.5908 3.4072 -2.0420 1.5208 -3.3369 2.2439 -4.4041 1.3562 -2.4776 3.3454 -7.2783 7.3022 7.1850 2.0340 -1.7963 2.7754 -8.1690 6.3078 3.2939 -5.9467 7.1219 6.0094 2.5809 -2.4488 7.0757 0.9430 -1.0171 2.1727 -7.6631 5.2169 2.6327 -5.3986 5.9508 4.8137 1.9854 -2.2929 5.7856 0.2940 -0.8541 1.3907 5.4124 0.2380 0.7985 -1.1864 3.2301 -5.8193 -0.4135 -1.5090 2.1126 -5.6593 2.6058 2.5247 0.7272 -0.2617 -2.9532 3.2198 -2.4786 0.3080 3.3156 -0.5448 1.7620 -1.9159 2.3170 -4.8581 -0.0082 -2.6150 -5.1217 5.5063 -4.2075 -5.4924 -0.1608 -3.9790 2.5496 -4.2555 2.2649 -3.1409 1.7705 -2.8490 -1.1578 3.0431 -0.7838 1.7071 -1.3282 0.9262 2.1028 -6.2226 5.0286 4.6949 0.8012 -1.4581
-6.2348 5.1707 -5.0849 0.2066 -0.8716 -5.6710 0.2607 1.1120 -4.2046 3.7247 -4.5253 2.3142 2.0970 -3.9147 4.0827 -6.0553 5.7896 -2.1237 5.1820 0.3955 2.1359 -2.5419 7.5198 -2.0278 -2.8163 1.0533 3.4582 -3.3876 -0.6466 2.0479 -3.3993 6.4554 -0.1697 1.8667 0.2541 2.2905 -1.3637 3.6366 -1.8189 -3.6161 -0.7044 -1.3380 2.7307 -2.4634 -0.3714 -5.1188 4.7222 -4.1728 -2.6322 2.1635 0.6434 -1.3678 -3.0692 -1.0956 -3.8157 1.6422 1.4244 -1.4389 -0.6454 -3.8418 4.5733 -0.3753 4.3474 0.3388 -4.7847 -1.6412 -1.8092 -2.4985 -2.3573 0.6299 -3.2547 0.2194 -2.0330 0.9913 -1.3856 3.1651 -1.6636 2.1970 -3.6224 4.1357 -1.6369 3.4710 1.2073 8.1655 3.3711 -4.8859 -4.6619 4.4444 0.1387 8.0342 2.9085 1.7470 7.0695 2.1248 -4.1765 -4.8866 3.5943 -5.5036 -3.4882 4.7896 -0.3112 6.8155 3.2699 1.2501 5.7560 1.1801 -4.1590 -3.9301 2.5800 -5.4735 -2.4495 -0.0164 -0.3695 -4.2665 2.3539 -3.9589 2.5970 -4.8702 5.7212 -3.0631 4.1070 0.3604 3.1122 0.1108 -3.3806 -1.1193 -2.8801 2.0242 -0.8401 -1.4640 -1.0827 -2.3928 2.1001 -2.6054 1.9634 -3.5713 5.3948 -2.3458 -3.3326 0.5441 2.3147 -3.1842 6.4893 -1.3769 2.9241 -0.3383 2.4936 -2.5086 3.3275 -1.5036 -2.5122 -0.2778 -1.6615 1.8886 -2.7484 0.4741 4.1767 0.2632 5.6293 1.4223 -4.8211 -2.6587
-6.5223 -0.5742 -4.6590 2.2073 5.8273 -0.6751 0.5612 6.0116 1.1577 -0.6150 -1.4007 3.4648 1.4926 -0.9115 4.6810 -2.7536 -0.6628 -4.5928 1.0820 -6.0452 1.9332 -3.9982 -2.3413 -1.3609 -3.7286 6.9949 -2.6740 -5.4074 6.5756 -4.1645 -2.2943 -0.7998 -1.1803 3.5934 -3.8842 1.9701 -5.1061 1.4769 -0.4710 -2.1578 2.5053 0.8623 0.4633 -2.0227 0.2803 -5.1296 -0.0370 -4.8810 -4.2829 3.9832 -2.6143 0.4554 0.8327 -0.6854 -5.1289 5.1731 -2.2246 0.1440 4.4978 -0.7484 1.6278 -5.6308 4.2542 2.2878 -0.3624 -1.8786 0.3497 2.1389 -1.3105 2.1404 -0.4326 0.5440 -2.3625 3.2026 -1.3390 1.4464 -3.2467 2.5634 -3.8710 1.0855 -2.3966 4.6806 -5.3359 7.2445 5.9004 1.1278 -3.6208 4.6693 -6.4460 6.3099 3.7392 -4.3791 7.1652 4.6152 1.7174 -3.9479 5.9740 0.1290 -2.7230 3.7131 -6.5225 5.3671 2.7092 -4.4579 6.1450 3.4934 1.2487 -3.3734 4.7629 -0.3843 -2.1076 1.1997 5.0783 0.1594 0.8273 -0.9755 3.3295 -4.1390 -0.7614 -4.0009 2.1190 -5.5555 2.8255 1.8956 0.3838 -0.6231 -3.8044 3.2648 -1.3742 -0.1712 3.0802 -0.3301 1.6419 -1.8310 2.3833 -4.2253 -0.2995 -2.5596 -4.7962 6.3044 -3.1422 -3.3757 -1.1460 -1.6430 2.4745 -4.1517 2.4036 -4.3418 1.8556 -1.3550 -1.6611 2.8970 -0.1917 1.3297 -1.4737 0.9525 2.7054 -5.4785 5.2681 3.5709 0.1581 -2.4162
-5.1834 7.1617 -3.7714 0.2337 0.0743 -4.9635 -0.0015 2.1969 -3.7272 5.0959 -1.7877 0.2220 5.0261 -3.6734 1.8325 -4.1616 4.3967 -4.5687 2.9783 1.3637 3.7588 -7.1916 2.4161 -3.7843 0.5037 3.3307 1.4579 0.1351 5.5644 1.7594 -5.2941 1.2150 -3.2701 1.5809 -1.6121 3.9223 -5.3235 2.7376 0.1713 -3.3308 -0.1723 -0.3557 1.8563 -0.8544 -0.0974 -5.0206 5.9795 -2.8473 -2.2430 3.9617 0.3068 -0.9557 -2.3031 -0.6062 -1.7144 4.0255 1.7198 -1.4241 0.2596 -3.1483 4.6965 -0.1630 4.5362 -0.1244 -4.5270 -1.3039 -1.5798 -1.6875 -1.7649 1.2231 -3.0840 0.0681 -2.1435 1.7756 -0.7554 3.1675 -1.1503 2.2971 -4.2664 3.2583 -1.8250 5.8764 -1.4240 8.4502 0.8968 -5.9756 -5.1939 5.3114 -0.1040 8.2358 5.9941 -2.2823 7.4218 -0.2615 -5.1228 -4.9969 1.7024 -6.2699 -4.1579 4.9167 0.2665 7.0048 5.5676 -1.8836 6.0919 -0.5416 -4.6419 -3.7730 1.3950 -5.7586 -2.8335 -0.0573 0.6933 -3.6198 4.2288 -2.8516 0.8511 -5.2668 4.6746 -3.5733 3.2105 0.0703 4.3801 0.2697 -3.0926 -1.0164 -2.9338 2.6374 0.0916 -1.3289 -0.2516 -1.7255 2.9574 -2.3217 1.4828 -5.4634 3.5411 -2.5804 -0.2776 4.4195 1.6550 -5.9306 2.2642 -3.2492 2.5619 -0.9869 3.5250 -4.3037 2.8776 -0.5006 -2.3900 0.4197 -0.8776 1.9653 -1.9693 0.4023 5.0402 -0.6623 5.8926 0.3221 -4.9678 -2.6503
-7.6473 4.2334 -1.2376 0.6605 -2.1328 -4.9714 2.1496 -0.1748 -4.7534 4.3381 -3.6553 0.5731 3.5503 -4.7566 2.6468 -5.7238 2.0770 -0.4014 4.7875 0.7753 3.1989 -3.7757 3.7046 2.2922 -1.8189 6.7142 -5.0276 -3.2829 5.9298 -6.5947 -2.4284 2.3742 0.9793 2.1229 -0.9072 4.2305 -1.7959 5.3053 -1.2914 0.4232 2.4011 -1.4820 2.1730 -1.3166 -0.0747 -6.1453 4.3822 -1.2477 -2.6132 3.8844 -4.1881 -0.9130 -0.7377 -0.3349 -1.8579 4.4055 -5.3871 -0.1297 -0.1078 -3.8179 5.5767 -1.2371 4.3011 -1.8641 -2.9744 0.1507 -1.2828 -0.4309 -1.7066 0.3549 -2.3969 0.8903 -1.4468 2.2517 -2.8380 3.3754 -1.6228 2.4184 -3.3089 3.5511 -1.2841 6.2386 -2.5612 8.3195 -2.9439 -6.0293 -2.6407 6.1375 -3.5052 7.2218 6.1216 -1.2417 8.0867 -3.2160 -4.6323 -2.9238 -2.2864 -6.3757 -1.5199 5.9204 -3.0626 5.9708 5.9106 -0.7621 6.7330 -2.8332 -3.6834 -2.0514 -1.8773 -5.3515 -0.5739 1.0682 -0.9847 -4.0838 3.1504 -3.8955 1.4748 -5.4893 3.5533 -0.1620 4.4224 -0.2762 4.1309 -0.5961 -2.2128 -0.1843 -1.6589 3.6675 -3.0356 -0.1746 0.2569 -2.3516 2.4611 -2.6286 1.9378 -4.0091 3.8969 -0.0721 -2.4183 5.7406 -5.7535 -3.3176 3.2134 1.0895 3.1846 -0.9626 3.6134 -2.2448 4.2711 -1.7781 -0.3507 1.7445 -2.1742 1.6801 -2.0241 0.7974 5.7745 -1.6375 5.7200 -2.1312 -4.0558 -0.8334
-6.1633 6.0729 -0.0156 1.0259 -1.1268 -5.5740 2.3691 0.8556 -4.9865 4.1124 -3.7060 0.3695 3.2050 -4.6416 2.4773 -6.5126 2.4549 -1.0665 4.7900 0.9069 2.5040 -4.8935 2.3429 2.1816 -0.8316 4.0226 -6.1148 -2.5783 5.4057 -6.6152 -3.4574 1.3371 0.6890 1.9367 -0.3840 3.5792 -1.9367 4.7177 -0.1987 0.3640 2.2998 -1.0859 1.9939 -1.1484 -0.3607 -6.2367 4.9098 -0.9746 -2.5169 4.3317 -3.5716 -1.0858 -0.8405 -0.8477 -1.7015 5.3187 -4.3722 0.1162 0.5584 -4.0391 5.3505 -0.9278 3.9961 -1.8992 -3.1288 -0.5106 -1.1543 -0.4545 -2.2458 0.2118 -2.3919 0.4576 -1.4528 2.4150 -2.5220 3.2538 -1.5107 2.0428 -3.6476 3.4032 -1.0551 5.5837 -1.6294 8.2177 -1.4394 -7.3609 -0.9620 5.5822 -2.7276 7.2683 5.5169 -0.3603 7.7785 -1.5594 -6.5013 -2.1261 -1.4615 -6.8292 0.2729 5.4960 -2.4782 5.9494 5.4495 -0.0901 6.3535 -1.6799 -5.1700 -1.9729 -1.6006 -5.3938 0.4392 1.3704 -0.1526 -4.4759 2.8920 -3.8203 1.2519 -5.9648 3.6069 -0.2576 4.2836 0.0554 3.5664 -0.6513 -2.2843 -0.7022 -1.6994 3.8298 -2.4049 -0.0506 0.4501 -2.5414 2.2748 -2.4897 1.6334 -4.4982 3.4539 0.1043 -1.7820 4.9396 -5.8142 -4.2248 2.2493 0.9804 3.0323 -0.6276 3.0777 -2.4303 4.0498 -1.1040 -0.3431 1.8130 -1.9658 1.5118 -1.9247 0.4588 5.4045 -1.1074 5.4729 -1.6739 -4.5921 -0.6389
-6.3504 -1.1544 0.2753 3.1688 4.9481 0.5181 1.1310 5.4485 1.8007 5.1108 -1.5237 2.9762 4.9035 -3.8978 2.3017 -7.1636 1.1809 -1.4952 0.9402 -2.1246 5.8579 -5.7197 -0.2256 -4.9409 -4.0121 7.3020 -3.9301 -5.7246 6.2160 -2.8797 -6.1115 2.0160 -4.5686 0.3097 -3.3285 2.8497 -2.3898 1.6040 -3.4139 -1.7817 2.0570 0.3627 2.2876 -0.0684 1.8727 -5.4155 -0.3352 -0.5807 -2.9049 4.6388 -2.9133 0.9669 0.4550 -0.8578 -3.4475 5.8475 -2.1904 1.0084 4.0762 -0.2459 2.2254 -4.1743 5.6455 2.3350 -0.8682 -2.4226 1.0911 1.8569 -1.2236 2.3746 -1.3492 -0.0607 -1.4081 3.3783 -1.5073 2.3654 -2.3816 3.3340 -4.4559 1.8981 -2.3888 1.5734 -8.4033 5.8925 5.6794 0.3097 -4.8164 2.8164 -7.8583 5.3781 0.5997 -7.5771 6.3144 4.5244 1.1774 -4.6749 5.7264 -0.8634 -4.1602 2.9895 -6.5263 5.3061 0.7959 -6.1398 6.2586 3.4947 0.8051 -3.8937 4.6126 -1.2684 -3.3206 1.8366 4.4034 0.9709 4.4478 -2.4875 2.0199 -6.1041 0.1546 -1.8364 1.0604 -3.3678 5.1157 2.2865 -0.2721 -1.0282 -2.7756 3.4889 -1.9445 0.4715 2.6625 -0.1779 2.9340 -2.3967 2.0047 -5.0778 0.6729 -2.8301 -4.5333 6.4456 -3.0198 -5.7002 0.9257 -4.1850 1.1963 -3.0387 3.6506 -3.1442 2.2200 -2.6693 -1.0248 2.6617 -0.3935 2.5029 -1.1313 1.2976 1.9302 -5.6303 5.7420 3.5483 -0.4583 -3.1755
-7.5694 -0.2795 -4.7090 -1.8087 4.3701 2.5029 -3.3057 2.9995 1.1171 2.3620 -1.2054 4.8205 4.3079 -2.5727 4.1297 -6.0294 -0.5907 -1.2737 -0.5340 -4.5362 1.9698 -7.7989 2.7065 -1.5452 0.8971 0.3668 -4.4004 -0.1234 -1.0869 -5.8370 -5.6406 3.0163 -0.8054 2.1532 -3.6511 0.2983 -4.4335 3.3803 -4.1657 0.0653 3.2814 -2.8248 0.9057 -0.2030 1.9984 -6.5399 -0.7113 -3.6932 -2.1440 0.8429 -4.2489 1.7166 1.7413 -0.3042 -1.1308 1.0433 -5.3507 -1.1887 3.8578 0.1756 1.3420 -5.5568 3.1201 4.0299 2.3423 0.3465 1.0116 3.0118 -0.2857 3.0077 0.3094 1.1586 -1.9228 2.2288 -2.2611 1.7567 -2.7721 2.4040 -4.6197 1.5068 -2.8145 3.5375 -9.2050 2.6974 5.3774 5.6123 2.7561 2.1038 -9.1739 2.4733 4.1988 -8.0711 2.9894 4.3243 5.7979 1.7749 5.9157 4.3947 2.9469 1.4316 -8.0129 2.5706 3.4738 -6.8179 3.1007 3.8926 4.7534 1.0456 5.4529 3.2672 2.1571 -1.8653 3.3270 1.4159 3.3725 -1.4591 3.7263 -6.6361 0.1400 -2.4493 0.8537 -4.9445 1.8266 2.7411 1.6901 0.8125 -2.4427 2.1763 -3.6050 -0.4056 2.7534 -0.5028 2.7531 -1.7248 2.3674 -6.0562 1.5252 -2.6746 -0.0914 -0.0210 -5.2409 -6.4405 2.4763 -1.5621 1.6597 -3.7351 1.4213 -3.9300 2.4319 -3.5683 -0.6938 2.8036 -1.9866 2.0932 -0.4709 1.8404 2.1456 -6.7862 2.8894 4.4679 3.4339 1.2558
-3.9788 7.3278 -2.0232 -0.2534 -0.4550 -5.3498 -0.5039 1.6914 -4.1662 4.6672 -1.5244 -0.2690 5.0150 -3.2375 1.4874 -2.3221 4.8858 -4.3680 2.0258 1.6041 3.0088 -6.1344 4.1561 -4.4619 -1.7542 4.2346 3.4496 -3.9291 3.5389 3.5251 -4.6179 2.4196 -4.3692 1.5810 -1.5687 3.7769 -5.4313 2.8345 -0.7360 -3.6079 -0.7650 -0.6663 1.3224 -1.0324 -0.3114 -2.9094 6.3655 -2.4778 -2.4679 2.9644 0.7367 -1.1838 -2.7965 -0.8230 -2.3339 2.3959 2.1295 -1.7846 -0.2834 -3.4275 4.1570 0.7913 3.8341 -0.1989 -5.0247 -1.2190 -1.7389 -2.2220 -2.0355 1.0160 -3.3122 0.0076 -2.4019 1.1944 -0.9298 2.8709 -0.9850 1.9437 -3.6151 3.4599 -2.0339 5.9672 0.4000 7.6930 2.7615 -7.4492 -3.1516 5.0136 1.4611 7.4276 6.2492 -0.5063 6.7400 1.8268 -6.6579 -3.9315 2.7149 -7.4151 -1.8081 4.4230 1.5501 6.2227 5.6144 -0.4092 5.4372 0.9168 -5.8832 -3.3125 1.7276 -6.5849 -1.1401 -0.4740 0.1922 -4.0058 4.0235 -2.6389 0.5216 -3.4540 5.4243 -3.5260 2.6630 0.5603 3.7932 0.1088 -3.5404 -1.1003 -3.2694 2.0182 -0.1218 -1.5816 -0.7703 -2.0069 2.7459 -2.2350 1.2305 -4.3316 4.3434 -2.9206 -2.7881 3.4332 3.1004 -5.0084 3.5188 -3.9899 2.3068 -0.7733 3.1839 -4.2282 2.8015 -0.9875 -2.6535 -0.1510 -1.1341 1.6290 -2.0932 0.2240 4.7271 0.5713 5.1901 0.8821 -5.8236 -1.8595
-7.1969 4.9553 -4.2112 0.3846 -1.0096 -5.8181 -0.0232 1.0794 -4.5703 4.0902 0.5384 0.4275 5.2288 -1.2595 1.7005 -6.4864 5.0790 -1.2328 0.9393 1.2443 4.3647 -3.4187 7.1709 -1.6762 -3.0667 -1.3465 1.7308 -2.5585 0.1014 3.4217 -3.1790 5.7240 0.0995 1.1233 -2.0030 3.7486 -1.6663 3.3401 -1.7804 -3.3209 -1.2917 -1.4529 0.8874 -0.6256 0.0672 -5.9595 4.3791 -3.5658 -2.6112 1.5822 0.6424 -0.3870 -3.1982 -1.2388 -3.6873 0.8886 1.4430 -1.2588 -0.9760 -3.9732 3.1539 0.5100 5.0229 1.6531 -4.3678 -2.0425 -1.1870 -2.7747 -2.3760 1.7752 -2.7482 -0.2577 -2.0025 0.6233 -1.4897 2.2586 -0.4716 2.4345 -3.9455 3.5798 -1.4139 4.8108 -1.1749 8.5876 3.4701 -4.1464 -5.9100 3.7895 -0.1452 8.6589 5.2246 -1.6337 7.3934 4.2376 -3.8631 -4.7105 2.1593 -4.4345 -5.8213 3.2564 0.3525 7.5292 4.6499 -1.0966 6.1725 3.6403 -3.8991 -3.5058 1.5184 -4.4911 -4.5192 0.0552 -0.4233 -4.4685 4.0605 -0.9233 0.8068 -5.5201 5.2190 -2.3881 1.7330 0.0834 4.7322 1.1021 -3.0632 -1.5004 -2.9350 1.5065 -0.8322 -1.1364 -1.3258 -2.5064 2.7497 -1.3768 1.4209 -4.0865 4.8969 -1.9993 -3.0350 -0.1277 2.3203 -3.5281 5.9447 -1.0557 1.6706 -0.9121 3.6014 -2.7481 2.8866 -1.4191 -2.2923 -0.7014 -1.7653 1.6954 -1.5065 0.3446 3.6949 -0.1518 6.2379 2.2244 -4.2163 -3.4073
-3.3285 3.7555 -5.9475 -2.2259 -3.2452 -4.3078 -1.4723 -0.9032 -4.2289 3.8299 -1.4053 -0.9092 5.0810 -2.6347 0.8378 -4.7401 5.9277 -3.1710 2.8063 2.0943 2.7316 -1.2191 6.8005 -3.5757 -4.6306 4.7010 1.2692 -3.2877 4.5933 3.1116 -1.4939 6.1322 -1.3912 2.1635 -0.9373 3.9437 -0.8642 2.7041 -2.0354 -3.9583 -0.4162 0.2571 0.6995 -1.1023 0.2882 -4.2540 4.1447 -4.8200 -2.3210 2.6517 0.7549 -1.5954 -3.0495 0.7444 -3.5266 2.6782 1.6652 -2.8695 -1.8154 -2.4106 4.9349 0.9953 3.1990 -0.6086 -5.2645 0.2483 -2.6398 -2.7984 -0.2340 0.8093 -3.3639 0.8010 -2.1765 0.7206 -0.7016 2.9303 -0.6416 1.7799 -2.8584 3.8862 -2.1144 7.3558 0.6231 6.7184 -0.3444 -7.3959 -3.4618 6.2889 -0.3230 6.4496 7.5752 1.6471 5.8745 -1.5855 -6.7588 -3.0596 0.7359 -7.3271 -2.6639 5.5263 -0.1816 5.3516 6.7435 1.8058 4.6932 -1.6519 -6.0845 -1.8969 0.6641 -6.6007 -1.4083 -1.7735 -2.1279 -3.4007 3.7204 -2.3887 0.2329 -3.6615 5.2639 -3.9957 3.4463 1.0203 3.4699 -0.4100 -3.7647 0.1224 -2.6978 2.0648 -0.5893 -2.2927 -1.6252 -1.0254 2.7114 -1.9899 1.2949 -2.4743 4.7980 -3.1697 -3.7686 4.0829 2.1114 -1.7027 5.9677 -2.5893 2.7810 -0.2854 3.1036 -2.0198 2.8844 -1.6627 -2.9296 -0.4017 -0.4111 1.3067 -2.0733 0.7318 5.7447 0.9378 4.4478 -0.4724 -5.9747 -1.0523
-1.6260 7.0670 -0.3543 -2.1764 -4.9749 -3.3269 -1.5396 -3.7300 -5.3504 1.1058 -4.5282 3.4910 2.0048 -2.6757 4.8680 -1.0533 3.6876 1.2316 5.1352 -4.3298 0.5137 2.0430 4.5780 -0.6171 -6.4218 4.1447 -3.4899 -5.0298 4.6840 -5.2177 1.2795 2.5016 -1.2619 4.0600 -1.2043 0.9607 -0.6334 3.9753 -3.9292 -2.8426 -0.1933 -4.7657 0.5715 -3.1473 0.4913 -2.0034 5.6952 0.1482 -3.7176 2.7323 -3.0001 -0.9485 -0.7791 -0.7970 -4.7769 2.5827 -4.0672 -2.5463 -2.5518 -3.4341 5.6869 -3.6363 2.7816 -1.8302 0.4237 1.1765 -2.1351 -1.2158 -1.5157 0.0725 -1.0616 1.3794 -1.9218 1.0714 -3.0717 2.9552 -3.0252 1.8668 -1.2173 3.4641 -1.7436 8.7381 -1.4744 4.8718 -5.6428 -0.0956 3.0544 8.3216 -2.8000 5.2913 8.2059 -0.9194 3.7687 -5.5279 -0.0570 1.6076 -4.5427 0.0089 3.8211 7.4001 -3.4734 4.5798 7.1925 -1.6359 3.0174 -4.3210 0.0900 1.0318 -3.2397 0.1677 3.2000 -1.6211 -3.6696 -3.8439 1.2231 -3.0276 3.6264 -0.7803 4.8164 0.2654 5.3230 -3.1837 1.3852 -1.1885 -0.8632 0.6963 -2.3607 2.3589 -3.5562 -1.7815 -1.3447 -2.9263 1.8045 -2.3367 2.4073 -0.2851 4.3515 -1.0930 -5.3904 3.9171 -4.3378 1.0681 3.6805 -0.9955 4.0599 -2.3598 1.3802 -1.3142 3.3548 -3.1161 -2.2695 -0.1167 -3.6799 0.7610 -2.2588 1.3169 6.8017 -2.8661 3.4010 -3.1284 0.1825 1.8594
-3.2704 2.8788 3.6658 3.2577 1.2121 -5.4522 3.0859 3.3757 -4.2852 5.0333 -1.8357 1.9714 4.1490 -4.0051 2.7798 -4.9421 4.3595 1.4991 1.6585 0.4753 5.1494 -7.0024 1.3599 0.6142 -4.9730 5.8578 -3.2814 -4.6958 5.6997 -5.5425 -6.6236 2.6473 -1.2571 0.1321 -1.9145 3.4909 -3.5837 0.8417 -2.0336 -0.1424 2.3941 -1.0099 2.3654 -0.2867 0.5831 -3.2673 2.6524 2.1737 -3.2389 3.3680 -3.8318 0.3831 -0.9429 -1.7625 -3.0110 4.8437 -4.0507 1.2531 1.7411 -4.1314 2.6019 -1.6101 5.9541 1.2761 -3.1345 -2.5365 0.3620 -0.2033 -3.0131 1.7293 -2.3321 -0.3142 -1.3212 2.1723 -2.9944 2.3602 -1.4491 3.0650 -3.9624 2.7596 -0.7739 1.5188 -4.4380 8.9781 4.0334 -3.8327 -5.7327 1.3230 -3.0156 9.1905 1.9965 -4.8845 7.8026 4.2277 -4.4515 -4.4338 3.0002 -2.9959 -5.9344 1.6340 -2.1403 8.2177 2.3376 -3.9403 6.7535 3.3714 -4.1914 -3.4292 2.0660 -2.7290 -4.8558 2.7491 1.9068 -4.2133 3.9434 -2.8686 1.8094 -4.6434 2.8791 1.5880 1.4359 -0.9575 5.2469 1.5525 -1.9070 -1.6877 -2.4844 2.9244 -2.6017 0.8560 1.1499 -2.7954 2.5405 -2.3034 1.9144 -4.7804 2.1632 0.2543 -4.3091 5.4895 -4.4030 -6.2175 2.1197 -0.2259 1.2304 -1.4980 3.8537 -3.3826 2.0264 -1.7895 -0.2404 1.9753 -2.1615 2.2165 -1.5013 0.6756 2.1548 -2.6216 6.9476 2.2566 -3.2825 -3.6442
-8.8073 2.3858 -2.0978 1.5292 5.0688 -1.2231 -0.9086 4.8059 -0.9859 4.5838 -0.1245 3.6241 4.9791 -2.5529 3.3312 -6.5723 1.6389 0.8427 -0.3874 -0.9902 4.4417 -5.9258 5.2406 -0.3477 -1.0299 -1.7330 -1.5209 -2.6807 -3.2888 -1.2822 -4.0571 3.9719 0.1183 0.6369 -2.8980 1.9267 -4.5890 2.7731 -3.7400 -0.6413 0.5911 -4.0521 2.4483 0.6851 1.1790 -7.8960 1.5372 -1.2453 -3.6436 -0.3521 -2.2801 1.8206 0.0107 -1.8953 -2.9147 -1.5212 -2.9002 0.3632 3.2974 -2.4673 1.0812 -2.7082 5.3523 4.0876 -0.7185 -2.5796 1.5816 1.2434 -2.6260 3.3868 -0.8654 -0.2730 -2.0345 1.4754 -2.4211 2.0647 -1.3891 2.9512 -4.8894 2.0248 -1.5693 0.4003 -6.7061 6.7236 7.3766 1.6226 -4.0024 0.7538 -6.4491 5.3397 0.2409 -5.6822 7.5806 6.0273 1.8708 -4.4769 7.6030 0.6721 -3.0780 0.9442 -5.1865 4.9191 0.4393 -4.3172 7.1248 5.0015 1.1440 -3.9986 6.4963 -0.1160 -2.5646 0.3969 4.0734 -1.1739 4.5155 -1.2845 2.6589 -7.0154 2.4087 -0.3805 0.1981 -2.2963 4.1952 3.2740 -0.0705 -1.4759 -3.2550 0.9367 -2.9722 0.3135 1.8108 -2.1852 3.1577 -1.4734 2.0108 -5.8685 3.0077 -1.1756 -2.2284 -2.2891 -1.8180 -5.1663 4.0919 -0.3921 0.9773 -2.2359 2.9050 -4.3079 2.0103 -2.8182 -0.8070 1.2191 -3.0099 2.9429 -0.4154 0.9554 0.7612 -4.0759 5.8410 5.2429 0.1217 -2.9924

>  <OB_ATOM_TYPES> (2mipD2)
C.3 C.3 C.3 C.3 C.3 C.3 N.3 N.am O.co2 O.co2 O.2 O.2 O.2 O.2 O.2 C.3 C.3 C.3 C.3 C.3 C.3 C.3 N.3 N.am N.am N.am N.am C.ar C.ar C.ar C.ar C.ar C.ar C.ar C.ar C.ar C.ar C.3 C.3 C.3 C.3 C.3 C.3 C.3 C.3 C.3 C.2 C.2 C.2 C.2 C.2 C.2 C.ar C.ar

>  <ENSEMBLE_RMSD> (2mipD2)
3.422 3.450 3.572 3.686 3.761 3.794 3.809 3.856 3.953 3.988 4.001 4.011 4.049 4.083 4.096 4.110 4.151 4.210 4.243 4.256 4.273 4.279 4.314 4.317 4.347 4.359 4.414 4.419 4.429 4.449 4.491 4.502 4.591 4.592 4.610 4.643 4.684 4.757 4.767 4.788 4.794 4.843 4.955 4.956 4.967 5.020 5.025 5.099 5.162 5.293

$$$$
