
 OpenBabel03071213D

 54 55  0  0  0  0  0  0  0  0999 V2000
   15.3620   10.7290   53.0290 C   0  0  0  0  0
   14.1280   12.0920   47.7760 C   0  0  0  0  0
   13.0210   13.7330   49.3000 C   0  0  0  0  0
    9.1020   16.8890   44.5360 C   0  0  0  0  0
    7.2430   18.5900   44.6700 C   0  0  0  0  0
   15.1400   10.4240   50.0300 C   0  0  0  0  0
    3.0450   18.6360   43.7560 N   0  0  0  0  0
   14.8150    6.4480   50.7660 N   0  0  0  0  0
   10.5520    5.5700   49.8450 O   0  0  0  0  0
    9.9270    5.2680   47.7170 O   0  0  0  0  0
   12.6070    6.4410   51.0580 O   0  0  0  0  0
    5.1180   16.3740   42.6240 O   0  0  0  0  0
   12.1910    7.3000   48.5410 O   0  0  0  0  0
    9.5270   11.6180   48.1090 O   0  0  0  0  0
    6.8230   14.6330   46.5620 O   0  0  0  0  0
   14.1340   10.1810   52.2860 C   0  0  0  0  0
    9.2780    8.1710   47.9200 C   0  0  0  0  0
    9.2590   12.0330   44.8490 C   0  0  0  0  0
    8.9100    7.0320   48.8820 C   0  0  0  0  0
   12.0620   13.1560   47.0500 C   0  0  0  0  0
    2.3010   16.4170   42.9460 C   0  0  0  0  0
    6.8680   11.3590   45.0110 C   0  0  0  0  0
   10.1550   12.9260   45.6560 N   0  0  0  0  0
    7.5290   13.8030   44.6100 N   0  0  0  0  0
   10.8730    9.9910   47.4630 N   0  0  0  0  0
    5.3950   16.5680   44.7910 N   0  0  0  0  0
   12.3720    9.0350   49.8930 N   0  0  0  0  0
   -0.9520   14.7770   45.2430 C   0  0  0  0  0
    2.6970   12.2920   45.4140 C   0  0  0  0  0
    0.3720   14.5960   45.6640 C   0  0  0  0  0
   -1.2060   15.5070   44.0770 C   0  0  0  0  0
    3.3960   12.6890   44.2690 C   0  0  0  0  0
    3.3330   11.5990   46.4390 C   0  0  0  0  0
    1.4220   15.1220   44.9110 C   0  0  0  0  0
   -0.1390   16.0390   43.3460 C   0  0  0  0  0
    4.7400   12.3680   44.1580 C   0  0  0  0  0
    4.6900   11.3100   46.3070 C   0  0  0  0  0
   12.7940   12.6200   48.2770 C   0  0  0  0  0
    7.7280   17.1950   45.1040 C   0  0  0  0  0
   14.5880    9.4550   51.0310 C   0  0  0  0  0
    3.2360   17.1970   43.8570 C   0  0  0  0  0
    7.8690   12.5060   45.2160 C   0  0  0  0  0
   10.4280    9.0620   48.4640 C   0  0  0  0  0
   11.1010   12.1610   46.3840 C   0  0  0  0  0
    6.7550   16.1060   44.6620 C   0  0  0  0  0
   13.5960    8.5150   50.3810 C   0  0  0  0  0
    9.8690    5.8830   48.8830 C   0  0  0  0  0
   13.6490    7.0460   50.7550 C   0  0  0  0  0
    4.6640   16.6950   43.6980 C   0  0  0  0  0
   11.7030    8.3450   48.9910 C   0  0  0  0  0
   10.4150   11.2300   47.3900 C   0  0  0  0  0
    7.0330   14.7820   45.3590 C   0  0  0  0  0
    1.1810   15.8390   43.7410 C   0  0  0  0  0
    5.4140   11.7260   45.1890 C   0  0  0  0  0
  1 16  1  0  0  0
  2 38  1  0  0  0
  3 38  1  0  0  0
  4 39  1  0  0  0
  5 39  1  0  0  0
  6 40  1  0  0  0
  7 41  1  0  0  0
  8 48  1  0  0  0
  9 47  1  0  0  0
 10 47  2  0  0  0
 11 48  2  0  0  0
 12 49  2  0  0  0
 13 50  2  0  0  0
 14 51  2  0  0  0
 15 52  2  0  0  0
 16 40  1  0  0  0
 17 19  1  0  0  0
 17 43  1  0  0  0
 18 23  1  0  0  0
 18 42  1  0  0  0
 19 47  1  0  0  0
 20 38  1  0  0  0
 20 44  1  0  0  0
 21 41  1  0  0  0
 21 53  1  0  0  0
 22 42  1  0  0  0
 22 54  1  0  0  0
 23 44  1  0  0  0
 24 42  1  0  0  0
 24 52  1  0  0  0
 25 43  1  0  0  0
 25 51  1  0  0  0
 26 45  1  0  0  0
 26 49  1  0  0  0
 27 46  1  0  0  0
 27 50  1  0  0  0
 28 30  1  0  0  0
 28 31  2  0  0  0
 29 32  2  0  0  0
 29 33  1  0  0  0
 30 34  2  0  0  0
 31 35  1  0  0  0
 32 36  1  0  0  0
 33 37  2  0  0  0
 34 53  1  0  0  0
 35 53  2  0  0  0
 36 54  2  0  0  0
 37 54  1  0  0  0
 39 45  1  0  0  0
 40 46  1  0  0  0
 41 49  1  0  0  0
 43 50  1  0  0  0
 44 51  1  0  0  0
 45 52  1  0  0  0
 46 48  1  0  0  0
M  END
>  <MOLID> (2mipC1)
2mipC1

>  <SMILES_CANONICAL> (2mipC1)
CC[C@@H]([C@@H](C(=O)N)NC(=O)[C@@H](NC(=O)[C@H](CC(C)C)NC[C@@H](NC(=O)[C@H](C(C)C)NC(=O)[C@H](Cc1ccccc1)N)Cc1ccccc1)CCC(=O)O)C	

>  <FINGERPRINT> (2mipC1)
0000000000000011000000000000000000000001000000000011001000000000000000000001000000000001000000000000010000000001000001100000000000000000000110000000000000000000000000000000000000000000000000000000000000000000000000000000000000100000000000000000000000001100000000000000000000001000100000000000000000001010000010001100000000001000001100000000000000000000010000000000000110110000000000000000011000000000100000000011001000000001000000000010000000000001100000000000000000000000000000000000000000001100000000000000100000000000000000000000000000000000000000100000000000000000000000000000000001000000000000000000100000000000000000000000001000000001000000000000000000000001000000000011100000100100000011100000000000000001000000000000000000000011100000110101000000000000000110000000000000000000000010000000000010000000000000000000000000000000000000000000000000000000000000000001000000000000000000000000000000001100000000000000000000000000000000000000011000000000000010110010000000000000010000000000000000000000100000000010111000000000

>  <MACCS166> (2mipC1)
000000000000000000000000000000000000000000000000010001000000000000000000010100100001000001110010001000010000011001101100001010001011000101111100111010101111111110111000

>  <OB_MW> (2mipC1)
751.463

>  <OB_logP> (2mipC1)
5.1499

>  <OB_PSA> (2mipC1)
234.84

>  <OB_MR> (2mipC1)
207.879

>  <OB_ATOMIC_CHARGES> (2mipC1)
7.00326e-05 5.93837e-05 5.93837e-05 0.0022754263 0.0022754263 0.0022761773 -0.1227022119 -0.0862908095 -0.2456528549 -0.2456528549 -0.2697902847 -0.2717580798 -0.2714756919 -0.2718278544 -0.2714875154 0.0022070179 0.042892381 0.1111005679 0.1163341865 0.0267526072 0.0547477779 0.0494670647 -0.2083992367 -0.2039254248 -0.1965995446 -0.196560409 -0.1962842627 -2.0018e-05 -2.00181e-05 -0.0003218162 -0.0003218162 -0.0003218298 -0.0003218298 -0.0042078985 -0.0042078985 -0.0042104592 -0.0042104592 0.0018810277 0.0289621547 0.0290189267 0.173615738 0.1170308172 0.1733210403 0.1504260452 0.1726799481 0.1743422663 0.3649311613 0.2805516463 0.2595333089 0.2616197773 0.2575705417 0.261214655 -0.0202309906 -0.0204144184

>  <MCT_HBD> (2mipC1)
8

>  <MCT_HBA> (2mipC1)
14

>  <ENSEMBLE_TOTAL> (2mipC1)
50

>  <ENSEMBLE_COORDS> (2mipC1)
3.6461 -7.9415 5.5885 5.9380 1.6770 -1.5546 6.0848 -0.3024 -3.0075 -1.4995 6.6205 -2.5831 -1.7685 5.7384 -0.2810 5.1156 -7.0343 2.8748 -5.5345 6.5253 -2.5933 7.2149 -4.4839 5.2968 -1.0051 -1.8482 3.2746 0.8562 -0.9407 4.2326 5.2278 -3.7309 6.1989 -4.0240 4.4879 -4.3678 5.1450 -3.2823 1.7312 3.5939 0.4218 2.1312 -2.1003 2.3157 -0.7462 3.5711 -6.6636 4.7870 1.7071 -3.2202 2.1811 1.7939 1.3855 -1.4897 0.8847 -3.2226 3.4507 4.6071 -0.3609 -1.0397 -6.0642 4.5205 -1.3541 0.1669 0.4618 -3.1340 2.2109 0.1217 -0.9027 -0.2205 2.6113 -2.0718 3.1616 -1.6253 1.1341 -3.4365 4.2050 -2.1484 4.1162 -4.0478 3.6533 -8.8834 1.3240 -1.7415 -3.2689 -2.0550 -2.6945 -7.4738 1.0556 -1.5194 -9.3231 2.5922 -1.8268 -3.2805 -1.0808 -3.6220 -2.0835 -2.2736 -1.8848 -6.6046 2.0752 -1.4019 -8.3867 3.6943 -1.6930 -2.1168 -0.2310 -3.7959 -0.9969 -1.5010 -2.0595 5.1648 0.5182 -2.1359 -1.3328 5.4163 -1.6901 4.9259 -6.3424 4.2033 -5.6277 5.0787 -2.6922 0.3342 1.2937 -1.8776 2.9695 -2.3962 2.3411 3.4994 0.3186 -0.2587 -1.9984 4.1885 -2.2841 5.2267 -4.8669 4.0619 0.2821 -1.8747 3.6932 5.8495 -4.2978 5.3076 -4.2850 4.5728 -3.1691 4.1870 -3.2867 2.5009 3.4169 -0.2699 1.1312 -1.4816 2.9370 -1.6057 -7.0771 3.4454 -1.5119 -1.0240 -0.4221 -3.0351
5.0576 -8.3643 4.1480 4.3720 0.0761 -2.8647 2.5987 -1.5692 -3.3344 -1.6056 7.2974 -1.3615 -2.7262 6.1042 0.4983 6.3246 -6.4239 1.9161 -5.2719 6.3950 -3.9928 8.1157 -4.6277 5.2238 -0.4496 -2.7451 4.3845 1.2718 -1.3895 5.0210 6.0258 -4.6038 6.1976 -3.0877 4.1493 -4.2025 5.3573 -3.1348 1.6142 3.5325 0.2091 2.3469 -2.5112 2.9212 -0.2452 4.8091 -6.9104 3.8241 2.2087 -3.6902 2.9767 1.2964 1.6129 -0.6264 1.6993 -3.6797 4.4006 3.1682 -1.0303 -1.0059 -6.1578 4.7934 -2.4152 -0.1251 1.0813 -2.6030 1.4137 0.3323 0.0558 -0.4655 3.1145 -1.3242 2.9675 -1.9008 1.5764 -3.4272 4.8551 -2.0263 4.9890 -4.0375 3.7115 -8.7987 1.4431 -2.7445 -3.4253 -1.6441 -2.6610 -9.1627 2.7371 -3.2928 -7.6167 1.2827 -2.1229 -3.5628 -0.4407 -3.2463 -2.1486 -2.0325 -2.0888 -8.3092 3.7724 -3.1990 -6.6945 2.4002 -2.0202 -2.4479 0.4896 -3.2625 -1.1101 -1.1790 -2.1195 3.0455 -0.4708 -2.4020 -1.7344 5.9815 -0.6353 6.0968 -6.2451 3.3983 -5.2489 4.9926 -3.6101 -0.0816 1.7286 -1.2333 3.2837 -2.6415 2.7759 2.8262 -0.0169 0.0690 -2.0466 4.8639 -1.6097 6.2223 -4.7834 3.7892 0.8519 -2.4694 4.6333 6.7387 -4.6604 5.2011 -3.8092 4.6288 -3.3302 4.6416 -3.2956 2.5988 3.1424 -0.5390 1.4530 -1.7377 3.5276 -0.9802 -7.0186 3.5913 -2.5552 -1.2758 0.1444 -2.6985
4.6603 -7.6545 1.8722 4.3486 -1.0917 -2.6764 1.9892 -1.4379 -3.2854 -1.6528 7.3296 -0.9288 -3.1416 6.1573 0.6733 5.9613 -6.8835 5.2025 -4.9329 6.6357 -3.9528 8.4324 -5.3670 3.6659 0.1171 -1.8472 4.8984 2.0729 -0.9962 5.7083 7.4109 -3.6788 4.8594 -2.7173 4.3655 -4.0590 4.7585 -3.6470 1.2766 3.7677 0.1150 2.1777 -2.6797 3.0001 0.0444 5.8382 -7.4942 2.8029 2.1659 -3.5134 3.4750 1.1414 1.5480 -0.5464 1.9783 -3.2825 4.9583 2.6229 -1.2881 -0.9148 -6.0647 4.8449 -2.8222 -0.5315 0.9789 -2.2845 1.2626 0.3549 0.2795 -0.6467 3.0880 -1.0825 2.7329 -1.9180 1.7690 -3.4292 4.9085 -1.9265 5.0812 -4.0516 3.5349 -8.4167 1.4367 -3.8940 -3.8732 -1.6660 -1.8788 -8.3771 2.6062 -4.7523 -7.7101 1.4154 -2.7498 -4.0573 -0.4593 -2.4440 -2.5525 -2.0614 -1.4231 -7.6133 3.6612 -4.4177 -6.8788 2.5505 -2.3911 -2.9337 0.4449 -2.6069 -1.5090 -1.2276 -1.5785 2.9219 -0.7742 -2.3023 -1.9672 6.0118 -0.2659 5.5400 -6.4262 3.8271 -4.9500 5.1909 -3.7871 -0.3011 1.6933 -0.9685 3.2632 -2.6382 2.9045 2.6090 -0.1660 0.1025 -2.1292 4.9239 -1.3059 6.0816 -5.0809 3.3844 1.4289 -1.9163 5.2256 7.3485 -4.6183 4.0723 -3.5820 4.7826 -3.2906 4.4249 -3.5010 2.4490 3.0979 -0.6239 1.4587 -1.8853 3.5660 -0.6997 -6.8155 3.6216 -3.2027 -1.7100 0.0795 -2.1837
6.5652 -7.5487 1.5811 5.2400 0.4373 -1.4493 3.3524 -0.1620 -2.9141 -3.5200 6.2018 -0.0861 -4.8966 4.2553 0.5801 6.6761 -6.9439 4.9544 -4.8023 4.0665 -5.5680 6.7280 -3.7576 5.9703 -0.3764 -3.5718 3.8201 0.9376 -2.6198 5.4235 8.6107 -4.1166 4.7007 -2.8202 4.8842 -3.8198 5.4043 -2.9782 1.7431 3.0152 -0.0712 3.0272 -3.1996 1.6792 -0.4141 7.3431 -6.7275 2.5801 2.3884 -4.1831 2.8254 0.8811 1.4381 -0.0594 1.7545 -4.5015 4.1608 3.2457 -0.6736 -0.5092 -5.9674 5.4612 -3.9751 -0.0247 1.0942 -2.3487 1.1690 0.1214 0.4879 -1.1025 2.6052 -0.7850 2.8797 -2.0565 1.8432 -3.9817 3.7920 -2.1333 5.1850 -4.1047 3.7537 -9.8235 4.5620 -2.3370 -2.3133 -2.2879 -3.6328 -9.4577 4.1087 -3.6664 -8.9458 5.2653 -1.5996 -2.7155 -1.0540 -3.9869 -1.0838 -2.4635 -2.8808 -8.2425 4.3976 -4.1643 -7.6286 5.5683 -2.1323 -1.9373 0.1052 -3.5882 -0.3528 -1.3921 -2.5258 3.7392 0.3159 -1.5364 -3.5292 4.7085 0.1273 6.4163 -6.2167 3.6567 -5.1239 4.2179 -4.1584 -0.3723 1.3680 -0.8988 3.2713 -2.9552 2.9044 2.6107 0.0363 0.6687 -3.0009 3.9877 -1.0960 6.4926 -4.7084 3.7436 0.7592 -3.4526 4.5470 7.3898 -4.1640 4.8356 -3.8383 4.3539 -3.3872 4.7232 -3.3429 2.6971 2.8572 -0.6853 1.9743 -2.4818 2.6237 -0.7273 -7.2837 5.1392 -3.3599 -0.8133 -0.0553 -2.8660
4.1771 -7.1906 4.0311 5.5756 -1.7327 -3.7056 3.6736 -3.1803 -4.2829 -1.5013 6.1199 0.7255 -2.4066 4.0788 1.7956 5.0947 -5.0999 6.3911 -5.0670 6.6080 -1.8952 7.5702 -3.3426 4.9031 0.7928 -2.4625 5.5997 -1.0058 -2.3520 4.1991 5.9786 -1.8965 5.7423 -3.1311 4.5408 -3.2719 4.8862 -3.1725 1.5563 4.2794 0.2701 0.4188 -2.1959 1.7243 -0.3836 5.2683 -6.1577 4.1652 1.6805 -2.2768 2.5476 1.6380 1.0226 -1.8570 1.0897 -1.3356 3.5720 3.6871 -1.9904 -2.1301 -6.0484 4.5232 -1.1492 -0.3183 1.0986 -3.3894 1.8762 -0.4108 -1.7584 -0.2555 2.4979 -1.3982 2.9530 -1.6212 0.6157 -3.2805 4.2226 -0.9862 4.2654 -2.8583 3.7586 -8.3331 1.3125 -2.8202 -3.4948 -1.7658 -3.4867 -6.9995 1.0848 -2.2943 -8.8776 2.5413 -2.7686 -2.2302 -2.2049 -3.3554 -3.7582 -0.3482 -3.6570 -6.2995 2.1062 -1.7699 -8.1221 3.6460 -2.2042 -1.1316 -1.2570 -3.3615 -2.7413 0.5314 -3.6627 4.0811 -1.9048 -3.5855 -1.5185 4.6121 0.6954 4.7640 -4.9519 4.9246 -5.1580 5.1863 -2.1785 0.1450 1.2310 -1.9538 3.0026 -1.7288 2.0554 3.2991 -0.6385 -1.5654 -1.8716 4.1008 -0.6881 5.3098 -3.7027 4.2720 0.1629 -2.1053 4.4551 6.2853 -2.8721 5.0662 -3.7499 4.6372 -2.2135 4.1345 -2.6789 2.3939 3.5713 -0.6019 -0.0793 -1.4945 2.6425 -0.7989 -6.8732 3.4418 -1.7477 -1.3782 0.0604 -3.4855
5.4497 -0.9643 6.4430 3.5824 -2.9425 -2.8957 3.8900 -0.6847 -3.8285 -5.4186 4.7376 0.7981 -5.5095 2.6558 -0.5362 7.5524 -1.5841 4.0661 -3.0472 7.3739 -4.0925 7.6058 -4.9287 4.1382 3.5082 -6.9511 0.7732 2.0131 -7.7062 2.3068 5.4384 -5.4780 4.6918 -1.9616 6.2067 -1.8653 5.1848 -2.4806 1.0275 0.3313 -2.2275 0.1569 -2.4590 2.4135 -2.0200 5.9908 -2.2578 5.8852 2.6496 -4.4125 0.7956 0.2407 1.2183 -0.3828 2.1097 -5.3511 1.8514 1.8744 -1.2156 -2.5007 -3.1151 5.0318 -4.7154 -0.9981 0.7565 1.6916 0.2873 0.1033 -1.3126 -1.7165 2.5394 0.1752 2.6222 -1.9874 0.4415 -3.7993 4.7969 -1.7170 4.5566 -3.3629 3.0730 -6.5760 3.1454 -6.3958 -4.5745 -0.9897 3.2838 -5.9601 2.6285 -5.1875 -6.0344 4.2007 -7.0285 -4.0326 0.0823 3.8891 -3.9413 -1.5593 2.1075 -4.8577 3.2163 -4.6880 -4.8515 4.8446 -6.4853 -2.8226 0.6793 3.3535 -2.8109 -1.0156 1.6193 3.3545 -1.4701 -2.6582 -4.6143 3.5827 0.2525 6.1851 -2.1250 4.3976 -3.5472 6.0675 -3.6964 -1.1321 1.2198 0.2544 2.8595 -3.0410 1.4092 1.5583 -0.5907 -1.1574 -3.4103 4.0728 -0.5282 5.8963 -3.3654 3.5944 2.5135 -6.7855 1.6741 6.2510 -4.6933 4.2155 -2.9858 5.7252 -2.3382 4.3207 -2.9155 1.7850 1.3961 -1.6859 -0.1208 -2.5011 2.9171 -0.9012 -4.2987 4.3863 -5.3475 -2.2462 0.1696 2.2487
7.2951 -2.6175 6.7379 3.9983 -3.5976 -4.0999 1.8356 -4.7477 -4.3522 -0.3412 5.3412 0.8105 -1.3046 3.2748 1.7812 6.8683 -0.8022 4.1268 -4.2497 6.7328 -1.3641 3.7334 0.7865 6.2942 2.0435 -6.9916 2.0486 0.7342 -5.1682 2.4520 2.9228 -1.3488 6.6266 -2.9187 4.4733 -2.9784 4.1507 -0.8720 2.0516 0.8511 -2.6358 0.4074 -2.1722 1.3728 -0.9310 6.2032 -2.6106 5.6946 3.8439 -4.3596 2.3910 1.4535 -0.1416 -1.9253 2.9985 -5.2421 3.2842 2.3898 -3.6729 -2.2145 -5.2587 4.8634 -0.2114 0.1853 0.8584 -3.8170 1.1810 -1.5651 -2.0603 0.0127 1.8031 -1.5811 3.1428 -2.8700 0.6377 -2.6721 4.0439 -0.7195 3.8784 -1.9668 4.0672 -8.9368 2.8124 -0.9755 -3.3595 -0.7796 -5.5778 -8.9017 4.2590 -0.8585 -7.8068 2.0968 -0.8350 -3.2316 0.5557 -5.4768 -2.2983 -1.6494 -5.1038 -7.7369 4.8868 -0.6172 -6.5485 2.7732 -0.5745 -2.0363 1.1279 -4.8843 -1.1828 -1.1200 -4.5717 2.5404 -3.5752 -3.7144 -0.5922 3.8701 0.5895 5.9318 -1.1947 5.2454 -4.5834 5.3239 -1.4858 0.1915 0.5864 -2.3287 3.1283 -3.0657 2.0678 2.2958 -2.3263 -1.5170 -1.2887 3.6211 -0.7359 4.4998 -0.9235 4.8397 1.7996 -5.7581 2.5499 3.6330 -0.5593 6.0141 -3.3049 4.5869 -1.8162 3.7985 -1.8604 2.6918 1.9835 -2.6151 -0.0659 -1.2327 2.1483 -1.0842 -6.5111 4.1155 -0.4925 -1.0547 0.3232 -4.4393
7.5826 -3.8936 5.3285 5.6009 0.6927 -0.8162 4.2427 2.3557 -2.0321 -5.8685 4.6122 -0.3287 -5.4838 2.2406 -0.9443 8.1695 -3.9327 2.1568 -2.3930 5.7315 -5.4116 6.5677 -6.8223 1.4857 -0.5018 -5.7434 3.0124 1.4916 -6.3652 2.0945 4.6491 -6.6857 2.7555 -2.4711 5.9862 -2.7248 4.3552 -3.1342 0.1986 2.0000 0.1952 2.7076 -2.2646 1.9705 -1.6351 7.1634 -4.8511 4.2402 1.5193 -3.3930 1.6718 0.3420 2.3005 0.6289 1.1770 -4.1239 2.9478 3.1355 0.6073 -0.7203 -3.0724 3.4394 -5.1289 -1.2698 1.9994 2.4813 0.8858 1.1108 -0.0042 -1.9268 3.0604 0.3873 2.5850 -1.3275 1.0632 -3.7900 4.1034 -2.4857 4.5545 -3.9677 2.3488 -6.5814 1.8014 -6.9634 -4.4720 -0.5884 3.6825 -6.3772 1.6937 -5.5299 -5.6477 2.3856 -7.7351 -4.5344 0.7224 3.9774 -3.3206 -1.1185 2.9734 -5.2620 2.1955 -4.9690 -4.4473 2.9334 -7.1301 -3.4524 1.6059 3.5810 -2.3076 -0.3042 2.6258 4.3362 1.5153 -0.7836 -4.8631 3.4890 -0.3620 6.9036 -4.0894 2.9639 -3.3295 4.8730 -4.7011 -1.1030 2.0357 0.9759 2.7266 -2.5055 1.8830 2.2587 0.9763 0.4564 -3.5924 3.9153 -1.0688 5.7981 -4.6501 2.1005 0.7735 -5.5238 2.6122 5.5871 -6.1456 2.1787 -3.1094 5.0582 -3.2144 3.9556 -3.2147 1.3571 2.2642 -0.0785 1.5393 -2.5254 2.8713 -0.8440 -4.2699 2.8621 -5.7987 -2.3885 1.1193 2.9159
6.3951 -4.3036 6.4955 1.9803 -1.8064 -3.9055 1.2278 0.3534 -3.0022 -3.2899 6.2107 0.9803 -4.9132 4.6398 -0.0453 7.0050 -1.3206 5.3007 -0.8920 5.8714 -4.7620 8.8464 -2.2239 2.5665 4.2805 -6.8759 2.5979 2.4344 -7.9287 1.7789 7.8910 -4.2772 2.1327 -0.2793 4.7358 -2.3321 4.3559 -1.1341 2.1789 0.3347 -2.9334 1.2774 -2.8738 2.2273 -1.5344 7.1876 -3.7971 5.3157 3.4349 -4.5668 1.2321 -0.7128 0.2153 0.8872 2.4734 -5.5266 1.9004 0.7884 -1.7536 -1.7563 -2.4413 4.0173 -4.6527 -2.9238 0.4311 2.0196 -0.6498 -0.8366 -0.1108 -2.0225 2.2202 0.6250 2.5066 -2.4002 0.6815 -2.4999 4.9537 -1.7010 5.4087 -3.1441 2.5794 -6.5700 4.3799 -5.7305 -6.6964 -1.2889 0.9152 -6.1850 3.9857 -4.3878 -5.6272 4.6236 -6.6586 -5.7683 -2.0695 1.4985 -6.4198 0.1176 0.6888 -4.8844 3.8572 -4.0711 -4.2228 4.4913 -6.3162 -4.4796 -1.5118 1.8752 -5.2338 0.6377 1.0500 1.7636 -1.0117 -2.6399 -3.5241 4.7925 0.5274 6.4960 -2.6073 4.6961 -1.9706 5.2904 -3.9806 -2.1009 0.7950 0.8012 3.1393 -3.1657 1.7298 0.7421 -1.1833 -0.3533 -2.4223 4.3253 -0.4032 6.5685 -2.5421 3.1868 3.0424 -6.9028 2.0510 7.8134 -3.1354 2.5735 -1.4529 4.9665 -2.6024 4.3566 -2.3646 2.1465 1.1333 -2.2687 0.6234 -2.4737 2.8189 -0.5367 -3.8643 4.1372 -5.0689 -4.2115 -0.2140 1.6380
3.2856 -7.6015 4.7922 5.7989 2.6742 -0.1039 6.2239 1.0702 -1.9217 -2.8509 5.7132 -1.9445 -3.1354 4.6093 0.2539 3.3020 -6.7709 1.1584 -6.6566 1.5787 -2.4964 7.0125 -7.1402 2.3812 1.7042 -0.7015 5.7678 3.9138 -1.0437 6.2189 6.6247 -6.1662 4.4372 -4.4441 3.3251 -4.0976 4.8303 -3.4930 1.1248 3.3058 0.6124 3.0662 -2.3904 1.2423 -0.4569 2.8828 -6.7741 3.5970 2.5023 -2.6715 3.6314 1.6548 1.4835 -0.6086 2.6299 -2.7686 5.1353 4.7746 0.4134 -0.0420 -7.1772 3.5879 -3.6942 0.5945 0.3759 -2.5755 2.3313 0.2974 -0.1041 -0.5227 2.2105 -1.4257 3.5136 -1.3712 1.8839 -4.0472 2.8402 -1.8673 4.6732 -4.5514 3.1654 -9.4059 6.9926 -2.3655 -2.5135 -2.4495 -3.4122 -9.9838 5.6616 -2.3250 -8.1661 7.1741 -2.8540 -2.3126 -1.4186 -4.2528 -1.6792 -2.6011 -2.2338 -9.2702 4.6037 -2.7510 -7.3940 6.0332 -3.3134 -1.2572 -0.4600 -3.9836 -0.6883 -1.7241 -1.9930 5.1995 1.5610 -0.9285 -2.4425 4.5402 -1.0870 3.9408 -6.8590 2.5241 -6.3148 2.9909 -2.5991 0.3477 1.0715 -1.2506 3.8112 -2.2899 2.9673 3.4797 0.7220 0.6815 -2.6547 3.2292 -1.8214 5.0470 -5.8343 2.6307 2.8491 -1.4237 5.7545 6.2897 -6.3826 3.2784 -4.8499 3.0686 -2.9679 4.4661 -3.4913 2.3003 3.4339 -0.0007 2.0092 -1.8762 2.1146 -1.1520 -7.9120 4.7942 -3.2338 -0.4778 -0.6030 -2.8965
6.4189 -5.1016 7.6564 1.4392 -3.4473 -3.7180 0.4430 -5.2465 -2.3686 -1.0342 6.1310 -0.0561 -2.4752 4.6258 1.2810 5.3865 -6.3948 4.9781 -4.1632 6.7022 -3.5042 8.3309 -4.3851 3.1787 2.0275 1.2693 3.3445 4.3011 1.1150 3.2342 7.5196 -2.3108 3.7758 -2.5186 4.1757 -3.8316 3.7049 -4.5780 2.4021 4.1664 -1.3132 -0.2114 -2.6699 1.8833 -0.2491 5.7378 -4.4456 6.4778 2.4623 -1.6853 3.5226 0.8932 0.0126 -1.1686 3.0356 -0.5815 4.3827 1.7652 -3.5040 -1.2498 -5.5743 5.3100 -2.1372 -0.8359 0.1161 -2.9366 0.8352 -1.3200 -0.5906 -0.5995 1.9038 -1.2986 2.7358 -2.4035 1.2499 -3.0429 4.3414 -1.5874 4.9694 -3.3580 3.9003 -8.2246 1.9670 -2.4924 -5.0607 -0.4783 -3.3032 -8.2190 3.0150 -3.4969 -7.4196 2.0575 -1.4188 -4.5080 0.6397 -3.8068 -4.2199 -1.4942 -2.6948 -7.3972 4.0712 -3.3632 -6.5181 3.1872 -1.2836 -3.0731 0.8373 -3.7222 -2.8887 -1.3150 -2.6226 0.8103 -3.7824 -2.3877 -1.3998 4.6945 0.2217 6.1669 -5.1194 5.1962 -4.5318 5.3227 -3.2348 -0.5032 0.4780 -1.5016 3.4530 -2.1657 2.4818 2.0308 -2.0289 -1.0244 -1.7518 3.9675 -1.0603 6.0891 -4.2566 3.9559 3.2182 0.6735 3.5890 7.3697 -3.5222 3.6593 -3.2556 4.5701 -2.9287 4.0239 -3.5029 2.9030 3.0942 -1.8591 0.0365 -1.7596 2.4788 -0.8172 -6.4876 4.1416 -2.2311 -2.2964 -0.0879 -3.1295
2.2572 -7.5875 1.3760 6.0722 2.9909 0.6881 6.0617 1.7771 -1.4566 -3.2119 6.1617 -1.0972 -3.7260 4.4589 0.6243 5.1368 -5.7333 -0.0980 -5.6584 1.7263 -4.6923 6.2040 -7.0884 3.4123 -0.1604 -2.8718 5.5095 1.0518 -1.1656 6.4165 4.1485 -6.7153 4.3921 -3.2359 2.9901 -4.2642 5.2936 -2.9027 1.7792 2.9629 0.7451 3.3845 -2.2903 1.6485 -0.4688 2.8995 -6.3857 0.7283 2.0551 -2.5625 3.5288 1.7090 2.0796 -0.3259 2.1311 -2.8050 5.0189 4.7473 0.9095 0.4483 -6.2822 3.9478 -3.9653 0.8262 1.1857 -2.4915 2.3309 0.8396 0.1145 -0.4407 2.8266 -1.2220 3.2204 -1.0942 1.9979 -3.8554 3.2489 -2.0427 3.8621 -4.4775 2.6637 -9.5103 4.5706 -1.2205 -0.7576 -2.7549 -3.0452 -9.6998 3.7909 -2.4302 -8.3245 5.1561 -0.9750 -1.4371 -1.7008 -3.5318 0.4808 -2.5481 -2.3163 -8.6819 3.6317 -3.2949 -7.2220 4.9784 -1.9040 -0.9216 -0.3565 -3.3468 0.9615 -1.3038 -2.1479 5.2376 2.1569 -0.2516 -2.7846 4.8475 -0.4914 4.3715 -6.3303 1.0590 -5.5447 2.6770 -3.5983 0.4734 1.7186 -1.1195 3.4030 -2.0983 3.0243 3.3843 1.1427 1.0659 -2.6032 3.7846 -1.5593 4.7217 -5.5833 2.3279 0.9742 -2.1603 5.7111 4.9541 -6.5104 3.4916 -4.0854 2.9841 -3.3792 4.2677 -3.1828 2.4013 3.1804 0.2589 2.2761 -1.7944 2.6286 -1.0179 -7.3846 4.2206 -3.0039 0.2323 -0.1644 -2.6824
6.4794 -4.0351 6.5506 1.7463 -2.2296 -3.6997 0.9300 0.0045 -3.0709 -3.0610 6.4275 0.7232 -4.7902 4.8760 -0.1510 7.2456 -1.2736 4.9857 -0.8384 5.6037 -5.0393 8.6884 -2.6047 2.1858 3.6042 -7.9986 1.9161 5.3631 -6.5841 2.2230 7.5558 -4.6118 2.1665 -0.2333 4.5548 -2.5659 4.1506 -1.2324 2.2641 0.1196 -2.9420 1.5189 -2.9492 2.2823 -1.5327 7.1699 -3.7416 5.2424 3.3106 -4.6383 1.2452 -0.8109 0.2711 0.9389 3.0936 -5.7402 2.2604 0.4841 -1.9502 -1.6017 -2.4825 3.8506 -4.7873 -2.9656 0.7162 2.1103 -0.8525 -0.8791 0.0529 -1.9871 2.3459 0.5777 2.2815 -2.4925 0.8295 -2.4150 4.9592 -1.8912 5.2280 -3.2318 2.6479 -6.6212 4.3708 -5.7491 -6.8575 -0.8613 1.2254 -6.2150 3.9303 -4.4267 -5.6945 4.6218 -6.6910 -5.9538 -1.6540 1.8296 -6.5199 0.5161 0.9152 -4.9113 3.7561 -4.1465 -4.2867 4.4358 -6.3894 -4.6279 -1.1425 2.1374 -5.2984 0.9931 1.2118 1.4750 -1.3007 -2.5409 -3.3778 4.9959 0.3709 6.5434 -2.5433 4.5706 -1.9276 5.1314 -4.2011 -2.1585 0.9419 0.8479 2.9491 -3.2880 1.8385 0.5108 -1.3035 -0.2309 -2.3288 4.4123 -0.5558 6.4725 -2.6353 3.0610 4.1619 -6.7814 2.1228 7.6001 -3.4139 2.4250 -1.3956 4.8541 -2.8185 4.1617 -2.4625 2.2358 0.9104 -2.3363 0.8017 -2.4655 2.9057 -0.5929 -3.9096 4.0287 -5.1642 -4.3000 0.1226 1.8142
1.2851 -3.6539 7.0101 6.7603 -1.9358 -2.6001 5.5133 -3.3778 -4.1500 -0.9505 6.0847 -0.0185 -1.3355 4.1439 1.4702 0.8527 -4.6674 4.1574 -5.2657 5.7017 -2.1281 4.5308 -6.2311 4.0636 1.4055 -0.1662 5.3673 0.0552 1.1184 4.0518 5.5780 -4.2077 4.4201 -3.0917 4.0258 -3.3398 3.2613 -3.5522 1.0318 5.0047 0.1287 -0.1510 -1.3353 1.5275 -0.3813 2.0878 -3.2555 5.7935 1.8700 -0.6504 2.2213 2.1156 0.8719 -2.5390 2.2143 0.4025 3.2487 4.2944 -2.0932 -2.4396 -5.5031 3.8840 -0.5626 -0.0242 0.7747 -3.7948 2.4499 -0.5413 -2.4387 0.2393 2.2917 -1.9062 3.0527 -1.0693 0.1725 -2.7971 3.8209 -1.0578 3.4286 -2.9224 3.2479 -7.4235 0.0591 -0.5704 -3.6773 -1.4280 -3.4025 -6.0996 0.2318 -0.0005 -8.0798 1.1147 -1.0841 -3.7265 -0.1148 -3.6893 -2.3939 -2.0924 -3.2578 -5.5177 1.4443 -0.0050 -7.4562 2.4261 -1.0817 -2.4961 0.6393 -3.8396 -1.2526 -1.3946 -3.3999 5.4760 -2.0792 -3.3808 -0.7804 4.5940 0.1388 2.1854 -4.4074 4.8217 -5.0143 4.2829 -1.9383 0.6110 1.0020 -2.4373 3.1399 -1.1990 1.6072 3.8539 -0.6883 -2.0829 -1.3518 3.8509 -1.0534 3.2490 -4.2536 3.7585 1.0930 0.4994 4.2305 4.5757 -4.8558 4.1388 -3.5410 4.0491 -2.1945 3.2599 -2.6800 1.8974 4.0388 -0.4895 -0.5939 -0.8478 2.4261 -1.0610 -6.2136 2.5790 -0.5889 -1.3068 0.0315 -3.6797
3.8249 -0.9620 6.8915 5.0516 -0.4620 -3.5935 3.6285 -1.3339 -5.3993 -0.4431 6.5351 -2.1630 -0.6881 5.3665 0.0092 2.7581 -4.0937 7.1491 -5.2432 6.5976 -2.7969 -0.2206 -3.9540 5.5375 6.5086 -4.4393 4.2790 8.1222 -4.5813 2.6731 1.1340 -5.6159 4.6843 -3.9363 3.9782 -3.7313 1.8587 -1.9003 2.3952 2.4519 -3.6485 -0.9682 -2.1284 2.2351 -0.9773 2.5444 -1.6989 6.5849 5.1480 -3.0450 2.1115 1.4735 0.5530 -1.9008 5.8058 -4.4043 2.0402 3.0635 -1.8668 -3.0685 -5.2643 5.4612 -0.6702 -0.2436 0.4608 -3.7071 1.4907 -0.8469 -1.5016 -0.1499 2.3426 -2.1790 3.6470 -2.2238 0.4170 -2.8843 4.7018 -1.8018 2.7532 -3.6169 3.6590 -7.4453 2.3700 1.3296 -3.7835 -1.9455 -3.6394 -8.0919 3.6130 0.9490 -6.1431 2.1756 1.0554 -2.6229 -2.4850 -3.2255 -3.8138 -0.5831 -4.1414 -7.3927 4.5685 0.3108 -5.3849 3.2110 0.3773 -1.4035 -1.6997 -3.2712 -2.6854 0.1476 -4.1786 3.6355 -0.8098 -3.9838 -0.5016 5.1913 -1.4800 2.8520 -3.0735 6.0385 -5.2033 5.2849 -2.1738 0.0611 0.9223 -2.2966 3.7555 -3.1395 1.5297 2.8431 -1.3642 -1.6534 -1.5376 4.2895 -2.1280 1.9697 -3.3444 4.8382 6.9501 -4.4669 2.9989 0.9489 -4.4452 4.9989 -3.9490 4.5968 -2.6687 2.7018 -2.7786 2.5602 2.9420 -2.5495 -0.7238 -1.3363 2.8531 -1.6829 -5.9912 4.3499 -0.0043 -1.4362 -0.4272 -3.7082
5.2048 -1.2180 7.4448 3.1657 -3.8533 -4.5655 1.3958 -5.5560 -4.4122 -0.0596 4.6658 1.2595 -1.4797 2.8486 2.1693 6.7289 -1.2611 4.6917 -3.6481 6.4422 0.8086 4.4839 1.8978 3.6607 4.3204 -5.3874 5.3638 4.0943 -7.1963 3.9909 2.4972 0.7540 3.9102 -2.0153 5.5889 -1.7298 4.9056 -1.7337 1.2615 0.6764 -3.1517 0.3148 -2.3667 1.0215 -0.4348 4.6822 -1.5593 6.0687 3.7859 -4.5785 2.2927 1.0615 -0.6905 -2.0172 2.9907 -5.1174 3.4595 1.9743 -4.2402 -2.4170 -5.1387 4.7696 -0.1081 -0.6542 0.2476 -3.5524 0.7990 -2.1113 -2.1952 -0.2576 1.2619 -1.3766 2.9790 -3.3812 0.3497 -2.5528 3.7778 -0.3956 3.8146 -1.6015 3.3011 -7.7591 4.3388 -3.4639 -4.6388 -1.1489 -4.2767 -6.5807 3.5023 -3.3264 -8.0580 5.2447 -2.5158 -4.3901 0.1729 -4.2933 -3.5589 -2.0884 -4.0333 -5.7759 3.6449 -2.2587 -7.1861 5.4046 -1.3655 -3.0447 0.6613 -4.0530 -2.3094 -1.6377 -3.8237 1.8459 -4.2006 -3.9230 -0.5923 3.2747 1.0241 5.3672 -0.7016 5.0316 -4.0011 5.7237 -0.4037 -0.2709 0.0195 -2.1051 3.1433 -3.3082 1.7819 1.9455 -2.8804 -1.7366 -1.2466 3.1640 -0.3388 4.5793 -0.4747 3.7612 3.8599 -6.0287 4.2633 3.7191 0.7608 3.8079 -2.7499 5.0424 -0.9089 4.0612 -2.1425 2.0534 1.7633 -3.1371 -0.2557 -1.3891 1.7086 -0.7164 -6.0748 4.6547 -1.2560 -2.0459 -0.2070 -3.8118
7.9377 -4.3794 4.4502 4.5628 1.4271 -2.1444 2.8664 3.1268 -1.6168 -5.3678 2.4507 0.0421 -5.6251 4.8700 0.4840 7.9103 -4.4020 1.1941 -2.5209 6.0241 -5.3510 5.6520 -6.8710 0.7305 -0.3114 -5.3707 3.9390 1.0784 -5.9389 2.2211 4.2336 -6.5451 2.5186 -2.0164 5.8121 -2.6558 3.7286 -3.0827 0.0786 2.0296 0.5143 2.9018 -2.4285 2.2503 -1.5911 7.1925 -5.2085 3.4333 1.3802 -2.9771 2.2066 -0.0339 2.3892 0.9445 1.3967 -3.8664 3.4272 2.6868 0.8482 -0.6672 -2.4119 3.6188 -5.0486 -1.8525 2.0554 2.5895 0.5244 1.2095 0.3072 -2.2415 3.2412 0.5002 2.4795 -1.0534 1.2589 -3.8736 4.4356 -2.4510 4.4582 -3.8099 2.1519 -5.2515 0.9928 -6.8933 -3.6702 -1.6977 3.5748 -5.0218 0.9500 -5.4604 -4.5449 1.8387 -7.6640 -2.3746 -1.6799 3.2132 -4.4260 -0.4589 3.6294 -4.1117 1.7664 -4.8991 -3.5663 2.7243 -7.0585 -1.7314 -0.4201 2.8861 -3.8352 0.7066 3.3102 3.6368 1.9477 -1.0723 -5.1881 3.8380 -0.5244 6.8272 -4.3543 2.2441 -3.0968 4.9031 -4.6289 -1.5145 2.1641 1.1189 2.6840 -2.2168 2.0881 1.9470 1.1985 0.6061 -3.8019 4.1708 -1.0340 5.4861 -4.6679 1.6242 0.7275 -5.1612 3.0955 5.0436 -6.1113 1.7060 -2.9033 5.1253 -3.1513 3.6658 -3.0599 1.3050 2.1570 0.1988 1.7212 -2.7611 3.1028 -0.7738 -3.3722 2.7059 -5.7272 -2.4375 0.7259 2.9109
7.0305 -1.7691 6.8967 2.1027 2.3554 2.6012 2.4653 3.2365 0.3358 -6.7326 1.3028 -1.4883 -5.7912 1.0795 -3.7735 7.9907 -1.4025 3.9467 -2.6563 5.0965 -3.3770 8.3309 -4.6341 2.9993 1.4270 -7.3244 2.3412 3.5619 -6.7358 2.8889 6.4894 -5.6109 3.9846 -2.9766 3.7272 -0.3632 4.9351 -1.9802 1.4267 0.3704 -1.4574 2.7753 -2.3342 1.3113 -3.2330 7.1834 -2.8218 5.8247 2.5188 -4.1913 1.7228 -0.9839 -1.0699 -0.3306 1.8285 -5.0602 2.7468 1.9558 0.8532 0.6474 -4.7853 5.8198 -2.4369 -1.7559 -2.3927 -2.2740 0.4118 -0.6736 -0.4025 -2.8423 -0.3042 -1.6486 2.3013 -1.7998 1.5430 -4.2209 2.9798 -2.1708 5.0106 -3.3404 3.2968 -5.5448 9.1786 0.1057 -1.9518 -2.3046 -6.5548 -5.8057 7.8252 0.5618 -5.0866 9.3936 -1.1404 -2.9409 -2.8956 -5.8608 -0.8059 -1.7492 -5.8572 -5.5795 6.7833 -0.2580 -4.8343 8.2691 -2.0241 -2.8804 -2.9442 -4.4109 -0.7356 -1.8202 -4.5161 1.6767 2.2456 1.1571 -5.5275 0.8939 -2.2982 6.8512 -2.2427 4.4712 -3.4121 5.2538 -2.1468 -1.5810 -0.9957 -1.7121 2.8703 -2.8574 2.3433 0.7712 -0.0626 0.8691 -4.2723 1.5857 -1.8019 6.4402 -3.2524 3.4263 2.3982 -6.4388 2.6671 7.0570 -4.6261 3.5248 -3.4990 3.9157 -1.4595 4.3685 -2.6641 2.2754 1.1147 -1.1697 1.8414 -3.0418 0.8817 -2.3278 -5.0536 7.0136 -1.5936 -1.8302 -2.4102 -3.7604
5.4075 -2.7687 6.8127 4.6871 0.4602 -2.2461 2.7072 1.4351 -3.3471 -5.8153 4.2516 0.2647 -5.9314 1.8909 -0.4932 7.0460 -1.7642 4.2601 -3.5119 2.4037 -4.9340 7.8633 -4.9929 3.2924 3.8928 -7.1639 0.9307 1.8426 -7.6966 0.0806 5.8322 -6.0788 3.2752 -2.4697 4.7816 -2.8947 4.9827 -2.6988 0.6349 2.4080 -0.5103 2.0926 -2.5323 1.3232 -1.5171 6.0804 -3.5422 5.7047 2.3945 -4.5275 0.4348 0.0672 1.4508 0.5974 2.1327 -5.6833 1.3710 2.4233 -0.1746 -1.5029 -5.2800 4.0756 -4.8240 -1.3886 1.2005 2.5893 0.4427 0.2959 -0.2017 -2.1915 2.2874 0.5669 2.2820 -2.1296 0.4409 -4.1788 3.3561 -2.2545 4.5423 -3.7392 2.6596 -5.7422 7.6694 -7.1017 -3.0340 -2.4681 4.0750 -5.7049 7.7070 -5.6512 -5.6760 6.4917 -7.7477 -1.7737 -2.4634 3.6047 -3.8081 -1.2398 4.0845 -5.5810 6.5656 -4.9506 -5.5338 5.2592 -6.9936 -1.1900 -1.2316 3.1038 -3.2729 -0.1004 3.6105 3.2755 0.9488 -2.0372 -5.0309 2.9872 0.0239 5.9507 -2.7941 4.4000 -3.8114 3.7858 -4.6014 -1.3477 1.2389 1.0769 2.7006 -3.2718 1.2215 1.8886 0.1828 -0.1355 -3.8290 3.2599 -0.8572 5.8910 -3.6538 3.1583 2.5746 -6.9459 0.7068 6.4863 -5.0411 3.2631 -3.4038 4.0325 -3.1720 4.1964 -3.1877 1.4401 2.2181 -0.8420 0.9241 -2.7980 2.1712 -0.6706 -5.4616 5.2970 -5.6509 -1.9178 -0.0993 3.0834
8.3056 -1.5473 4.7320 0.3267 -5.8519 -2.8811 -2.0833 -5.6974 -2.4094 0.6736 5.0369 0.3044 -1.1576 4.1643 1.7250 6.7229 0.2489 2.9778 -2.5678 6.9511 -2.5602 3.6079 1.1407 5.1343 7.2813 -5.1799 0.9676 7.1394 -5.2153 3.2440 3.3672 -1.0067 5.9398 -1.8333 4.0174 -3.3616 2.5873 -1.1412 2.0039 0.6267 -4.3634 1.7996 -2.5539 1.7587 0.0192 6.8457 -1.7817 4.4204 4.7281 -3.8129 1.3423 0.1113 -1.2754 -0.7674 5.1319 -5.1561 1.9084 -0.4678 -4.8314 -0.7725 -4.3204 5.7514 -1.3936 -1.1854 -0.4572 -2.7029 -0.5272 -2.4674 -0.2292 -0.5456 1.0537 -0.9078 2.4395 -3.4512 0.6785 -2.0048 4.2635 -1.0664 4.1988 -1.9226 3.4598 -7.9436 3.6826 -2.3492 -5.2936 0.2236 -3.7053 -6.7975 2.9697 -1.8171 -7.8852 5.0141 -2.5290 -4.3503 1.0481 -4.1952 -4.9118 -0.9061 -2.8779 -5.6639 3.6342 -1.5317 -6.6635 5.7344 -2.2173 -2.9541 0.8267 -3.8671 -3.6169 -1.1215 -2.5861 -0.7501 -5.0060 -2.2453 -0.2201 3.8546 0.5810 6.1158 -0.4838 4.1525 -3.3051 5.7002 -2.5156 -0.9512 -0.2976 -1.2140 3.3389 -3.4411 1.8113 0.3611 -3.5966 -0.4775 -0.9162 3.3942 -0.6849 4.6280 -0.6250 3.9093 6.6092 -5.1735 2.1441 3.8151 -0.2213 5.1114 -2.2955 4.5846 -2.3737 3.3311 -2.0393 2.3910 1.1234 -3.8490 0.8015 -1.4612 1.9997 -0.4846 -5.5877 5.0681 -1.7612 -2.6021 -0.2017 -3.0744
1.1769 -2.1566 7.0625 6.2724 -2.9314 -3.2128 4.6485 -3.5857 -4.9407 -0.6576 3.3585 1.7547 0.7400 4.8181 0.3205 -0.0100 -2.7468 4.2397 -4.8856 6.0462 -1.7194 2.2674 -6.2856 4.1653 2.6440 0.5523 4.6381 3.3123 2.4540 3.5732 4.0129 -4.9703 4.9101 -2.8628 4.2207 -3.0299 2.7344 -3.8674 1.0541 5.0971 -0.1208 -0.7908 -1.6010 1.3347 -0.3559 1.9178 -2.3224 5.7580 3.0454 -0.4510 1.8962 1.8778 0.5723 -2.5642 4.0292 0.3020 2.7625 3.8694 -2.4664 -2.8994 -5.3408 4.1402 -0.3211 -0.3557 0.5633 -3.6476 2.1789 -0.8410 -2.4041 0.1091 2.0401 -1.7634 3.5237 -1.6860 -0.1224 -2.6555 3.9004 -0.7481 3.0104 -3.0140 3.1759 -7.3651 0.3788 -0.5671 -3.9088 -1.7376 -2.9782 -8.0503 1.6161 -0.8950 -6.0780 0.4029 -0.1779 -3.9972 -0.5532 -3.6096 -2.6113 -2.2537 -2.5811 -7.3975 2.7893 -0.8150 -5.3731 1.6687 -0.0890 -2.7987 0.2275 -3.8586 -1.4979 -1.5462 -2.8409 4.9897 -2.5403 -3.9067 -0.6480 4.2824 0.5608 1.2250 -3.3365 4.8790 -4.7894 4.5970 -1.6558 0.3919 0.7504 -2.3417 3.7314 -1.6674 1.3072 3.6213 -1.0434 -2.4400 -1.2285 3.7013 -0.7101 2.1144 -3.9439 3.8163 3.2938 1.2361 3.6673 2.9205 -5.0895 4.3659 -3.3389 4.2372 -1.8957 3.0830 -2.9521 1.7981 4.1649 -0.8815 -1.0362 -0.9545 2.2257 -0.8988 -6.0002 2.8127 -0.4176 -1.5974 -0.2379 -3.4711
5.4618 -1.1548 6.0844 0.7072 -1.7584 -3.9891 0.1984 0.3524 -2.8418 -4.2204 6.0701 0.6513 -5.2045 4.2574 -0.7242 7.1408 -0.2822 3.3723 -0.1756 6.1235 -4.0524 7.1500 -4.8562 2.6049 4.1662 -7.1407 1.6847 2.1358 -8.1011 1.3052 8.5665 -3.2584 3.4381 -0.1794 5.1086 -1.5040 4.8628 -2.0361 0.4337 0.1957 -2.9813 1.4783 -2.5208 2.1670 -1.3772 6.4706 -1.8433 5.1985 3.0904 -4.7573 0.6451 -0.8847 0.3385 1.0676 2.2981 -5.7107 1.5121 0.0703 -1.8120 -1.6124 -1.3739 4.0418 -4.3532 -2.8476 0.6625 2.5650 -1.0121 -0.8802 0.2890 -2.2220 2.3438 0.9177 2.2129 -2.4968 0.4524 -2.4870 4.9131 -1.6026 5.0654 -3.1208 2.4707 -4.9965 3.7550 -6.6209 -6.5265 -1.5407 2.4504 -4.9478 3.3134 -5.2392 -3.8905 4.2388 -7.2137 -5.4045 -2.1623 2.8562 -6.4758 -0.1475 2.0467 -3.7966 3.3903 -4.5478 -2.6487 4.3277 -6.4669 -4.1429 -1.4410 2.8857 -5.3099 0.5219 2.0762 0.8027 -1.0222 -2.6740 -4.0956 4.6266 0.2332 6.2520 -1.4371 3.7619 -1.3378 5.3661 -3.6190 -2.2687 0.9302 1.1907 3.0246 -3.3749 1.2627 0.2990 -1.2512 -0.2223 -2.7071 4.3313 -0.2990 6.3594 -2.5607 2.7588 2.8318 -7.1073 1.4585 7.4615 -3.5775 3.0028 -1.2304 5.1214 -2.1357 4.4047 -2.7665 1.3081 0.8584 -2.3391 0.6688 -2.4824 2.8356 -0.3489 -2.6059 3.9351 -5.1809 -4.0913 -0.1538 2.4941
6.9597 -1.7127 5.5346 2.5240 0.9476 -2.1054 0.6571 0.2063 -3.5263 -4.6133 6.0368 0.3407 -5.3491 4.4352 -1.4072 7.6206 -1.0950 2.4035 0.3898 5.6947 -3.4451 7.8048 -4.3096 1.3318 2.0316 -7.6965 2.6936 3.6161 -6.7618 1.3445 6.1863 -5.3239 2.6218 -0.2307 4.5913 -0.9854 3.9890 -2.6275 0.1457 1.7565 -0.2010 2.2102 -2.8146 2.0312 -1.3639 7.2139 -2.5970 4.3381 1.8030 -4.4602 1.5648 -1.3866 0.5614 1.4704 2.1889 -5.3657 2.7109 0.8077 -0.5754 -1.1977 -0.8289 3.6800 -4.0056 -3.6094 0.4897 2.5221 -0.9349 -0.3937 0.4733 -3.0352 2.2310 0.9404 1.4465 -2.1570 1.0045 -2.4728 4.7757 -1.5516 4.5901 -3.0938 2.3351 -3.9301 3.5241 -6.9544 -6.7059 -2.3889 1.8408 -4.1791 3.0983 -5.5892 -2.7101 3.9624 -7.3123 -5.4802 -2.8207 2.1883 -6.9632 -0.9660 1.7074 -3.1874 3.1343 -4.6815 -1.6397 4.0069 -6.3320 -4.4135 -1.8639 2.4269 -5.9763 -0.0791 1.9259 1.0580 0.5899 -2.1225 -4.5028 4.6229 -0.1703 6.6126 -1.9767 3.1003 -0.8809 5.0094 -3.2827 -2.8539 0.8350 1.2553 2.2673 -3.0392 1.8035 0.4641 -0.1048 0.1983 -3.0520 4.2209 -0.3506 6.0075 -2.9558 2.1196 2.7057 -6.6536 2.1518 6.6471 -4.3254 2.0788 -1.1167 4.7744 -1.8134 3.6897 -2.8914 1.3065 1.2947 -0.8095 1.2475 -2.9475 2.7120 -0.3526 -1.8722 3.6216 -5.0642 -4.6454 -0.5468 2.2765
8.9474 -3.8695 0.5811 4.6334 2.1523 -0.7185 2.6317 3.4986 -0.2338 -6.5556 3.9944 -0.6669 -5.7304 1.9225 -1.7532 6.9595 -2.8530 3.2321 -2.8284 6.8904 -4.3206 6.5667 -6.7551 1.4168 -0.2479 -6.1536 3.0824 1.7144 -6.4584 1.9597 5.0318 -6.4755 3.1124 -2.8439 6.1650 -1.6731 4.0969 -2.7946 0.3095 1.4119 -0.1235 3.3689 -2.4073 2.0419 -1.5350 7.6041 -3.2489 0.8760 1.4335 -3.4516 1.9577 -0.5618 1.8916 1.3785 1.2763 -4.3880 3.1325 2.6177 1.0587 0.1544 -1.7919 4.6961 -4.4055 -2.5464 1.0670 2.5975 0.2727 0.9244 0.6879 -2.7649 2.5633 0.6978 2.3362 -1.2454 1.5661 -3.9568 4.2111 -2.2494 4.5413 -3.9003 2.2926 -2.8633 1.7473 -7.3245 -5.3792 -2.1421 2.4037 -2.9210 1.4428 -5.9062 -2.4412 2.9555 -7.7376 -4.0809 -2.4113 2.1755 -5.7971 -0.7863 2.7131 -2.5658 2.3739 -5.0026 -2.0621 3.9628 -6.7632 -3.0964 -1.3447 2.2417 -4.8883 0.2039 2.7605 3.4541 2.3124 0.2099 -5.4368 2.9851 -0.7204 7.0240 -3.8740 2.1219 -3.0164 5.4876 -3.9952 -2.0034 1.4675 1.2416 2.6001 -2.5161 2.1964 1.6001 1.0244 1.2740 -4.0987 3.6659 -0.9220 5.7159 -4.5615 1.7892 0.9682 -5.7627 2.6314 5.7211 -6.0100 2.2112 -3.2389 5.3614 -2.5111 3.8112 -3.0610 1.4738 1.7697 -0.1621 2.1941 -2.9912 2.6736 -0.6604 -2.1382 3.6909 -5.4478 -3.4857 -0.0831 2.5050
3.7257 -2.7670 7.5598 5.0567 -1.0333 -1.5189 5.8904 0.4289 0.2785 -3.8767 0.4382 -4.5139 -3.9218 2.4858 -5.9108 5.9610 -1.8640 5.0502 -6.4725 4.8411 -0.8253 3.9672 -5.6961 5.6280 -0.9740 -6.3895 0.7338 -1.6805 -5.4327 2.6809 5.5392 -6.0683 3.9867 -3.9763 4.8535 -1.9084 4.2495 -3.6301 1.4398 1.7350 -0.2652 1.9252 -2.1709 1.8215 -1.4804 3.7802 -2.3589 6.1087 1.2285 -4.4400 1.4510 0.8318 0.6926 -2.1302 -0.2419 -4.2102 1.1862 3.5201 0.5514 -0.3752 -5.7678 2.6078 -0.2136 1.6028 2.5918 -3.5064 1.1300 0.7313 -0.7069 -0.7593 2.1168 -3.2942 1.9815 -2.2432 0.7298 -4.3244 2.7646 -2.8501 3.4393 -3.5912 3.6138 -8.7126 -0.5060 -0.2405 3.6493 6.0516 -2.0238 -7.6115 -0.5204 -1.1867 -8.8151 0.4888 0.6586 2.7412 6.1971 -3.0056 3.9131 4.7360 -1.4692 -6.6926 0.4620 -1.1668 -7.8297 1.5551 0.6743 2.0238 5.0389 -3.5093 3.2518 3.6632 -1.9380 4.7077 -0.3691 -0.2100 -3.2101 1.7651 -4.7929 5.0014 -2.9575 5.4499 -5.9703 3.5838 -1.3554 0.5019 2.0987 -2.5890 1.9124 -3.1499 1.8521 2.2113 -0.2071 -0.4469 -3.0754 2.6581 -3.5719 4.7023 -3.8421 4.2581 -1.0296 -5.3917 1.6477 4.7897 -5.3092 4.5960 -4.6518 3.8389 -2.0457 3.3346 -3.4728 2.2422 1.9272 -0.8713 0.8765 -1.9813 2.1519 -2.6476 -6.8155 1.5506 -0.2097 2.2548 3.8216 -2.9847
7.3853 -6.2251 0.8946 0.4959 1.7841 5.8647 2.5254 1.3931 4.5386 -2.1098 0.9041 -5.1245 0.1313 1.9097 -4.7627 4.1458 -6.8036 1.2073 -3.1853 6.1588 -4.7551 6.3605 -4.7001 4.2162 6.9819 -0.4992 2.1104 7.4954 -0.2683 -0.0890 4.2467 -4.6374 5.1296 -1.5099 5.1064 -2.4963 2.0265 -3.7116 1.9234 1.7191 0.7963 0.6053 -3.5137 1.6468 -1.6305 6.1441 -5.3677 0.9319 4.3913 -0.9129 1.7624 -1.8008 0.3799 1.0756 5.1923 -0.5482 0.5354 0.3886 0.3417 3.8754 -4.1296 6.2697 -2.5372 -3.1490 -1.0578 -0.4556 -0.9481 -0.3655 1.9885 -1.4885 0.5489 -1.3389 1.9999 -1.0045 2.0377 -2.4902 3.2709 -3.5331 4.3160 -3.5983 2.1637 -8.3221 5.9114 -1.7606 -2.6850 -5.1675 -1.5666 -7.3866 4.9183 -1.2639 -7.8797 6.9446 -2.4993 -2.8628 -4.2459 -2.5302 -2.6544 -4.7637 -0.1723 -6.0742 5.0347 -1.5342 -6.4630 7.0713 -2.7922 -3.0131 -2.8453 -2.1760 -2.7903 -3.4667 0.1566 1.0276 1.5753 4.4679 -1.0862 1.3209 -4.0958 5.1545 -5.9372 1.9226 -3.6261 5.3498 -3.6292 -1.8299 -0.3417 -0.2517 3.1196 -1.6337 1.3715 0.1478 0.5044 2.3891 -1.6138 2.2456 -3.0137 4.4374 -4.9015 2.7611 6.6659 -0.4290 0.7967 4.9872 -4.7372 4.1539 -2.4196 4.5925 -3.1392 3.0766 -3.0720 1.8618 1.3607 0.1223 1.5683 -2.3398 1.4606 -1.9367 -5.5969 6.1466 -2.3398 -2.9549 -2.4668 -0.8860
0.8125 -3.9836 6.0919 3.0289 -3.5415 -3.9949 1.0308 -3.9861 -2.6169 -1.1498 4.9969 -0.1037 -2.0899 2.9731 0.9871 3.9859 -4.2870 7.2180 -6.0605 4.1763 -3.7618 4.8722 -6.5778 4.9943 3.1096 1.9771 4.2910 4.8581 2.4207 2.8958 6.4654 -4.9172 4.8375 -3.3457 4.0640 -3.7970 3.7420 -4.0063 1.9198 4.6230 0.1320 -0.2192 -2.1885 0.7048 -1.4144 2.0144 -4.8602 5.8448 3.5340 -0.6407 2.9813 1.6145 0.2397 -2.7372 4.5372 0.1913 3.7462 2.8675 -2.6332 -1.6992 -5.5952 5.2098 -1.6222 -0.1307 0.1746 -4.5038 1.8010 -0.4301 -1.4580 -0.3727 1.5944 -2.5574 3.5218 -1.6326 0.7990 -3.3102 3.2269 -1.6354 4.4798 -3.1659 3.9352 -7.8510 4.1639 1.8651 -3.4975 -2.3763 -5.2268 -6.4176 4.3827 1.9474 -8.4906 4.3215 0.6928 -3.6999 -1.0561 -5.0673 -2.1513 -2.9174 -5.1625 -5.7208 4.7149 0.8450 -7.7425 4.6908 -0.4938 -2.5709 -0.1729 -4.8377 -1.1052 -2.1002 -4.9452 2.0984 -2.9752 -2.9534 -1.3140 3.5016 -0.1946 3.2825 -4.0391 5.9036 -5.3839 3.9857 -2.4893 0.1350 0.3298 -3.0214 4.2253 -1.6320 2.0686 3.0690 -1.1405 -1.5263 -1.8794 3.0981 -1.5385 4.1149 -4.3426 4.6795 4.2077 1.6393 3.5735 5.2919 -5.2722 4.8536 -3.9130 3.7893 -2.7445 4.0929 -3.0500 2.6104 3.8327 -0.8087 -0.2615 -1.5336 1.6612 -1.8155 -6.4097 4.8607 -0.4272 -1.3253 -0.6760 -4.7546
0.4300 -4.3311 -2.7002 3.7909 4.1337 4.6579 5.3258 2.3391 3.9712 -2.2274 0.8949 -4.1800 -0.2228 2.0790 -5.0353 3.6012 -5.1121 -1.6342 -4.0831 6.7864 -3.9773 3.0598 -6.8553 0.7429 4.9985 -5.1346 4.8841 7.0030 -4.0961 5.2048 1.2313 -6.1852 1.9634 -1.8223 5.7837 -2.7505 1.4920 -2.3416 1.9401 3.9888 0.4630 0.7863 -2.5207 2.8178 -0.8655 1.1231 -5.2929 -1.7676 4.2824 -2.6435 3.6723 0.4212 2.0383 1.3074 5.5648 -3.3968 3.4055 2.8850 2.0548 3.6868 -4.9633 5.1832 -2.3917 -1.5837 0.6537 0.7445 1.1266 1.1817 2.2477 -0.3673 1.9548 -0.9861 3.3964 -0.6024 2.7562 -2.4454 3.6635 -3.4595 3.1007 -3.7654 1.0714 -8.3073 2.7221 -3.4411 -2.1149 -3.5813 0.4054 -7.0409 2.1282 -3.0516 -8.4488 4.0594 -3.4558 -2.0155 -3.0262 1.6266 -2.0101 -2.7485 -0.7789 -6.0047 2.9149 -2.7101 -7.3287 4.9100 -3.0952 -1.8067 -1.5949 1.7580 -1.8017 -1.4255 -0.6585 4.0293 3.0410 3.6462 -1.0069 1.7010 -3.8032 2.2851 -4.6047 -1.0977 -4.0609 5.3855 -3.5907 -0.2573 1.1966 0.2475 3.8350 -1.9347 2.4132 2.5184 1.6020 2.2890 -1.3057 2.9265 -2.9596 2.1631 -4.6261 0.4055 5.9468 -4.2101 4.6002 2.0906 -5.9569 1.1148 -2.6493 5.0088 -3.2194 2.6646 -2.6782 1.8068 3.3703 0.4349 1.8478 -1.5047 2.5511 -1.5007 -6.1489 4.3613 -2.7536 -1.6757 -0.8268 0.6609
1.5720 -1.4386 7.2367 5.6978 0.1500 -3.3430 7.0550 -0.4669 -1.3882 -2.8066 2.4290 -5.2813 -2.6822 4.7958 -4.5683 0.3199 -4.2326 5.6094 -5.0266 0.3750 -0.7181 2.9817 -5.8592 5.7628 2.6414 -6.9344 -1.5471 4.2011 -7.2453 0.0887 4.8022 -4.6052 5.1242 -4.1539 3.4366 -0.6072 3.5627 -1.8774 2.8357 2.2563 -2.5592 -1.8338 -1.4279 1.0707 -1.8014 1.9110 -2.8818 6.9588 3.4427 -4.3892 0.5781 1.9990 1.5365 -2.0527 2.5007 -5.5433 0.3227 4.6486 -0.0481 -1.0992 -6.2920 1.3337 -2.5602 1.7219 3.8041 -1.0644 2.3098 0.5727 -1.0083 -0.0414 2.8147 -2.4124 3.1010 -2.0100 0.2520 -3.6523 2.3603 -2.5915 2.3613 -3.7942 3.3063 -10.2625 2.9263 -2.3819 0.9956 4.7570 3.0490 -9.1258 3.7859 -2.6575 -10.0814 1.6055 -2.2034 2.2045 4.2881 2.6905 -0.0474 4.9139 2.0514 -7.8884 3.2639 -2.7260 -8.7438 1.0420 -2.2658 2.4689 3.9449 1.3038 0.1975 4.6017 0.7668 5.6976 -0.6029 -2.0344 -2.1919 3.3950 -4.2969 1.4693 -3.2569 5.5657 -5.5449 1.6120 -1.2740 1.0176 2.5309 -1.4765 2.6475 -3.1683 0.9962 3.2453 -0.4002 -1.5473 -2.3975 3.0365 -2.8364 2.6232 -3.7107 4.7133 3.2352 -6.6496 -0.3631 3.5857 -4.7589 5.2074 -4.3874 2.5661 -1.4439 2.9274 -2.8588 2.4553 2.8033 -1.7659 -1.0707 -1.2647 2.1794 -2.3047 -7.6871 1.8428 -2.4947 1.5015 4.0868 0.3792
2.3573 0.2714 6.2679 5.3418 -1.6762 -4.1278 3.1824 -1.6541 -5.3114 -1.0326 5.4035 -0.3771 -1.7997 3.6168 1.1598 2.9833 -3.0103 7.1157 -6.0600 3.9260 -3.4543 0.0352 -3.8026 6.2535 7.3852 -1.9226 0.8655 8.0734 -1.7494 3.0338 0.9678 -5.2341 4.7207 -3.3252 4.0073 -3.6321 1.6823 -2.4695 2.0650 2.9219 -4.3105 -0.8373 -2.2284 0.8902 -0.8791 1.6286 -1.0395 6.4308 5.2073 -3.2616 2.4687 1.6016 -0.1924 -1.7628 5.7214 -1.8390 2.5160 3.3174 -2.5872 -3.0397 -5.5170 5.4216 -1.6398 0.0693 0.0366 -3.7127 1.6735 -1.6279 -1.5308 -0.1694 1.4739 -1.7711 3.8927 -2.6745 0.4878 -3.1787 3.3735 -1.4058 2.7677 -3.4055 3.8730 -7.3690 5.2245 2.2220 -3.2171 -2.5564 -4.6132 -8.0566 4.7280 1.0443 -6.1391 5.7568 2.1095 -3.3943 -1.2251 -4.6902 -1.9153 -3.0975 -4.2658 -7.4661 4.8053 -0.1612 -5.4932 5.8245 0.8099 -2.2880 -0.3285 -4.4072 -0.8864 -2.2686 -4.0165 3.8501 -1.5198 -3.9650 -1.1201 3.9140 -0.1559 2.4966 -2.1788 5.9542 -5.2974 4.0408 -2.2217 0.1988 0.1511 -2.2082 3.8888 -3.4077 1.7337 3.0661 -2.0377 -1.6495 -1.7436 3.2159 -1.3502 1.8089 -2.9606 4.8561 7.1829 -1.8422 2.2025 0.9391 -4.1354 5.2692 -3.8374 3.8269 -2.5323 2.6757 -3.0033 2.5548 3.2693 -3.1485 -0.6484 -1.4425 1.7350 -1.2988 -6.1229 5.3523 -0.2812 -1.0863 -0.8291 -4.0672
3.7206 -7.3874 1.2192 7.9119 2.9224 0.8762 5.8499 4.2196 0.5866 -2.3821 4.5597 -4.0505 -1.3800 5.5664 -2.0177 1.8849 -5.5669 -0.7624 -4.4390 2.5915 1.0849 -0.7380 -4.9265 1.1885 0.4107 -2.0692 5.3922 1.6407 -2.8906 7.1204 0.1873 -4.8020 3.2942 -3.7582 1.0350 -1.7668 1.5793 -1.5331 1.1610 5.0727 -0.9445 0.5673 -0.6909 2.5868 -0.0307 2.3631 -6.7456 1.3752 2.6564 -1.0826 4.1795 2.3631 1.8408 -0.5160 2.7520 -2.2948 5.0779 5.8656 1.7773 0.1625 -5.7854 3.6232 -0.6655 0.8408 -0.0002 -1.2231 3.7106 1.3454 -0.7379 0.4853 2.3034 -2.0074 3.6557 -0.1076 2.2041 -2.9798 3.1779 -1.3629 2.3850 -3.4654 2.1445 -9.6198 2.3809 -2.1087 -0.0460 -2.5577 -4.5377 -8.4683 2.4198 -2.9911 -9.5026 2.7804 -0.8299 -0.9712 -1.6717 -4.1266 1.2289 -2.6532 -3.8490 -7.2787 2.8438 -2.5280 -8.2159 3.2247 -0.3237 -0.6875 -0.8034 -3.0000 1.4954 -1.8437 -2.8072 6.4096 2.8882 1.0271 -1.4388 4.3386 -2.8945 2.3478 -5.4153 0.6658 -4.9857 2.4083 -0.2479 1.4727 1.3175 -1.6235 3.3137 -1.3662 2.8423 4.4443 1.3925 0.5225 -1.7738 3.0616 -2.1488 1.5598 -4.3313 1.3504 1.5700 -2.4329 5.9883 0.2962 -4.7257 2.0754 -3.8522 2.1220 -1.2001 2.3285 -2.0967 1.9525 4.4492 -0.0170 1.0755 -0.6270 2.6327 -1.2553 -7.1412 3.2308 -1.1331 0.5101 -0.8599 -2.3880
7.0721 -2.5997 5.9081 2.2922 3.5962 1.8185 1.8998 2.9833 -0.5350 -6.8940 2.4958 -1.9946 -5.6642 0.7885 -3.3077 8.2017 -1.8543 2.8781 -1.6078 3.7342 -4.2312 8.0775 -4.9504 1.5282 1.6685 -6.3711 -0.2961 3.7272 -6.6196 0.6567 6.3220 -5.8814 2.6977 -2.8858 4.6350 -1.2819 4.6954 -1.7221 0.9722 0.5356 -1.3591 3.3312 -2.5138 0.8138 -2.0035 7.4531 -3.3937 4.6825 2.2079 -3.7419 1.0062 -1.5613 0.6531 1.3583 2.1148 -5.1142 1.6293 1.8877 1.2396 1.2047 -3.5131 5.1994 -4.6240 -3.3563 -1.0105 1.7024 -0.2896 0.2314 0.7964 -3.5874 0.7577 0.0547 2.1588 -1.4420 1.6826 -3.9315 3.0818 -2.6484 4.9650 -3.4615 2.4750 -3.6016 9.4758 -4.7913 -3.1943 -5.1383 0.5700 -4.4447 8.7485 -3.8597 -2.7987 8.8069 -5.6379 -4.3245 -4.4419 0.3524 -2.0519 -4.4932 1.1926 -4.4163 7.4040 -3.8343 -2.7633 7.3554 -5.6085 -4.3983 -3.0420 0.7307 -2.1215 -3.1986 1.5501 1.5339 2.6751 0.8965 -5.7349 1.5310 -1.9946 7.0440 -2.6403 3.4418 -2.4701 4.7367 -3.6305 -2.6536 -0.1390 0.6850 2.7399 -2.7283 1.9942 0.7208 0.4866 1.8109 -4.4433 2.2234 -1.6062 6.4004 -3.4800 2.3634 2.6188 -6.1064 0.6322 6.8992 -4.9004 2.2416 -3.1020 4.1541 -2.3924 4.2222 -2.5559 1.7405 1.1215 -0.8610 2.3728 -3.3970 1.1959 -1.2422 -3.5252 6.6821 -4.7276 -3.3341 -2.4384 1.2903
6.5711 -6.5378 3.4981 3.8184 2.8595 0.6920 1.4311 3.4412 0.7585 -6.4207 1.2982 -3.3089 -4.1178 1.6811 -4.1403 7.9051 -3.6432 3.9471 -5.9180 5.9962 0.1716 7.7503 -2.3979 0.7034 2.0876 -6.0991 3.4126 1.7744 -6.0537 5.6628 5.9102 -3.6120 0.0272 -5.0982 3.4052 0.6592 4.6260 -1.5641 4.3303 0.4842 -0.1659 3.3520 -2.2184 2.1416 -1.3566 6.8578 -5.4032 2.5454 1.9587 -3.4760 3.0831 -1.1038 -0.5037 0.3284 1.4788 -4.0272 4.4046 2.1472 1.0785 0.5227 -3.6986 5.9437 -0.8241 -2.1323 -2.1942 -1.1186 0.3246 -0.4362 0.0836 -3.0762 0.0274 -0.9296 2.2039 -1.2240 2.2102 -4.7563 3.1428 -1.6236 4.6929 -2.8556 2.4084 -2.8605 7.6174 -4.6811 -2.0597 -3.5466 -5.1770 -2.5449 6.2305 -4.3898 -3.3696 8.4073 -3.7191 -0.8976 -3.2175 -4.5844 -3.3065 -3.4469 -4.4395 -2.7918 5.7246 -3.1676 -3.6461 7.8603 -2.4028 -0.8907 -2.7601 -3.2062 -3.3028 -3.0125 -3.1670 2.4570 2.4099 1.1633 -4.9520 1.1286 -3.0079 6.6447 -4.0796 3.2391 -5.0851 5.3317 -0.8156 -1.8378 -0.7146 -0.9727 2.5566 -2.1092 3.2838 0.8893 0.4580 1.0817 -4.5890 1.7090 -1.6535 6.1304 -2.9640 2.3532 1.8031 -5.4808 4.5820 6.5512 -3.0450 0.9056 -4.9954 3.8669 -0.4721 4.0600 -2.1323 3.3982 1.1586 -0.3329 2.3375 -3.1572 1.3529 -1.3109 -3.3967 6.5637 -2.1443 -2.0493 -2.6405 -2.5322
-0.2138 -5.9318 5.0916 6.8321 -0.2768 -3.7209 4.9747 1.3003 -3.3990 -1.7066 5.3196 -2.8964 -0.2747 4.8602 -0.9230 -0.8564 -2.7646 4.8602 -4.1313 2.3777 1.5680 1.8208 -1.5091 6.5799 6.4368 -2.7489 4.3764 7.2883 -4.8379 4.0734 3.3797 -3.1368 6.0887 -4.4756 2.0400 -1.7257 2.7050 -0.9161 2.5908 3.9714 -3.4346 -1.3853 -0.8458 1.3685 -0.3846 0.5021 -4.7054 5.6033 5.2089 -2.8855 1.9315 1.4194 -0.2422 -1.8901 5.3998 -4.1339 2.7621 4.6345 -1.1287 -3.0186 -4.9510 4.4873 0.6688 -0.8265 -0.9474 -2.7340 2.2878 -1.2233 -2.5192 -0.2001 1.4349 -2.6122 3.7274 -1.8743 0.3195 -2.7424 3.2741 -0.8073 2.4702 -3.0566 3.4410 -8.9882 5.6888 -0.0948 -3.1447 -1.1522 -6.3318 -8.0146 5.6216 -1.1696 -8.6213 5.4004 1.1666 -3.7427 -0.8028 -5.1786 -1.7285 -1.4722 -6.3477 -6.7459 5.2611 -0.9069 -7.2536 5.0031 1.4507 -2.9679 -0.7310 -3.9533 -1.0129 -1.4208 -5.2101 5.6043 0.0232 -2.8958 -0.9291 4.2666 -2.1473 0.3860 -3.5826 4.6003 -4.7960 3.0002 0.4367 0.2777 0.0875 -2.8237 3.7755 -2.7739 1.4526 3.6040 -1.1023 -1.9120 -1.7847 3.0461 -1.8639 1.5904 -2.6736 4.5154 6.4877 -3.9621 3.7774 2.3746 -2.4981 5.7960 -4.0007 2.7094 -0.8107 2.9332 -2.1216 2.5324 3.7861 -2.2868 -0.9957 -0.9135 1.8592 -1.5071 -6.3576 4.9158 0.4510 -1.6522 -1.0115 -3.9690
7.6362 -2.9666 3.4949 3.6523 1.2596 -1.6170 5.3884 0.8375 0.0768 -1.4301 4.4282 -4.3294 -2.9135 6.3029 -3.6673 4.9432 -4.7353 5.3271 -7.1869 2.1665 -3.5101 4.5410 -6.9805 3.3598 -1.1985 -5.8540 -0.4313 -2.0938 -4.3145 0.9937 5.8087 -6.5015 1.5015 -5.6002 3.2872 -1.5281 4.0700 -3.0389 0.6253 1.6186 -0.6915 2.8042 -2.1790 2.0172 -1.5940 7.0434 -4.2128 4.1062 1.1668 -4.2917 0.5370 0.5116 2.4007 0.0722 0.1595 -5.1010 1.3189 3.0410 1.0583 0.7834 -5.3231 0.6347 -3.2742 -0.0429 4.4683 1.3225 0.6372 1.3598 1.0800 -1.2014 3.9232 -0.7176 1.5533 -1.9329 0.8426 -3.9104 3.4610 -3.1114 3.6122 -4.2607 2.5462 -3.3544 -1.2142 -6.5999 -1.5917 4.3561 5.3116 -2.6414 -0.2944 -5.7319 -4.6452 -1.5045 -6.3587 -0.3761 3.8360 5.0661 -2.3570 4.9550 4.2324 -3.2714 0.2704 -4.6869 -5.3297 -0.8888 -5.2361 0.1682 3.8663 3.7208 -1.8540 4.9837 2.9858 3.9568 0.5627 -0.3126 -2.1118 5.1242 -3.1728 5.5381 -4.1327 4.0783 -5.7416 2.0511 -3.6087 -0.6005 3.3493 0.4635 1.7885 -3.2359 1.4198 1.6693 0.4242 0.6599 -2.9613 4.2034 -2.3136 4.9687 -4.6640 2.7865 -1.1631 -5.0174 0.6321 5.1612 -6.1293 2.4776 -5.1148 2.9984 -2.6169 3.2810 -3.4724 1.4592 1.5992 -0.7664 1.5799 -2.0934 3.2395 -1.5213 -4.6754 -0.0214 -4.4421 -0.5518 4.3978 2.7160
3.2494 -1.7194 6.6395 5.1017 -2.8925 -4.3822 3.4908 -4.0176 -5.8547 0.1365 3.9931 1.8958 -0.8026 1.7075 2.0749 4.1487 0.6565 3.9524 -4.1528 5.9637 0.0800 0.3407 1.0310 5.0185 5.0235 -5.0780 4.1031 2.9510 -5.4384 4.9790 -0.0096 -1.2461 5.1078 -2.4568 4.5271 -1.9012 2.2066 -0.5807 1.0689 1.5647 -4.2719 -1.1159 -1.7336 0.8549 -1.0426 3.7796 -1.4168 5.2596 3.6433 -3.6056 2.1238 1.8522 -0.3475 -2.4334 3.1914 -4.9570 2.6297 2.8720 -3.5768 -3.5234 -4.7413 3.7846 0.9056 0.6732 1.2132 -3.9646 1.5084 -1.7340 -2.7155 0.4541 1.4376 -1.5460 3.0567 -2.8359 -0.0793 -2.1837 3.3153 0.0460 1.8789 -1.5884 3.1199 -7.0329 0.3760 -0.2987 -3.2640 2.1322 -5.3894 -7.6520 1.6845 -0.1859 -5.7366 0.2135 0.0200 -2.3760 3.1271 -5.2134 -2.8774 0.7586 -5.1224 -6.9242 2.7428 0.2135 -4.9508 1.3549 0.4508 -1.0371 2.8286 -4.7384 -1.6303 0.4787 -4.7046 3.6360 -3.0412 -4.7110 -0.0953 2.6901 1.1714 3.1403 -0.1582 4.7253 -4.2369 4.5610 -0.2945 0.6154 0.4993 -2.6294 2.5650 -2.9708 1.2745 2.6711 -2.5594 -2.4159 -0.8083 2.9111 -0.1506 1.8947 -0.3704 3.8893 3.6739 -5.1683 4.0311 0.6490 -0.2819 4.7335 -2.8663 4.1569 -0.8021 2.2300 -1.5808 1.7827 2.3435 -3.3236 -1.1547 -0.7833 1.6275 -0.9553 -5.5113 2.5764 0.5099 -0.6794 1.5572 -4.4817
5.8903 -6.4937 3.9715 3.9305 1.5034 -2.0253 1.9145 2.8380 -1.5619 -7.0595 2.9876 -0.2359 -6.1348 1.9690 -2.2993 7.8078 -4.3042 2.5503 -2.9281 7.3209 -1.0099 6.5205 -4.4641 -0.6466 1.9870 -4.6256 5.0800 2.7109 -3.6009 6.9748 4.3484 -5.0148 -0.1006 -3.1060 5.0623 0.5519 5.4397 -1.2256 2.8448 1.5922 1.0390 2.6294 -2.7659 1.9059 -1.8138 5.9667 -5.9749 2.5565 2.2181 -2.4501 3.5538 -1.1850 0.1769 0.8066 2.1920 -2.2572 5.0515 2.0498 0.4700 -0.8185 -2.0776 5.6105 -2.4930 -2.9655 -1.5347 0.6370 -0.0079 -0.3465 0.1354 -3.4077 0.7874 0.1160 2.4494 -0.8978 1.6903 -4.3542 4.0384 -1.1156 4.4466 -3.0840 1.8810 -3.2651 5.2596 -6.5926 -2.9962 -4.7772 -2.1629 -3.4249 4.1468 -5.6740 -2.7241 6.4144 -6.1654 -1.8338 -4.4315 -1.5810 -4.2168 -4.0659 -1.8262 -3.0268 4.2678 -4.3952 -2.2998 6.5482 -4.7832 -1.8009 -3.3449 -0.6188 -4.1844 -3.0501 -0.9450 2.8200 1.7514 -1.0341 -5.9293 2.1752 -0.8168 6.3118 -4.5051 2.5550 -3.2553 6.0602 -1.6541 -2.4139 -0.2548 0.0412 3.0594 -1.3819 2.9017 1.0867 0.5859 0.3411 -4.5812 2.7719 -0.4595 5.6756 -3.6971 1.4437 2.3465 -3.5433 5.8081 5.4103 -4.4637 0.1693 -3.5415 5.0270 -0.5940 4.4393 -1.8737 2.5435 1.7327 0.2806 1.6714 -3.4772 1.8017 -0.8199 -2.4593 5.5223 -3.9280 -2.9239 -2.6593 -0.3350
6.6969 -1.8006 2.5706 3.8116 0.8189 -2.5479 2.8736 2.7832 -1.4140 -6.1581 4.7398 -1.0326 -5.8979 2.2840 -1.1629 6.0117 -4.9180 4.3836 -2.8164 4.7187 -6.0282 5.8369 -6.6741 1.0693 -0.7291 -6.8336 1.7289 1.4446 -6.7464 1.0420 4.2288 -6.8222 2.7166 -2.3444 5.2403 -3.3581 3.5758 -3.1665 0.0671 2.4941 -0.2487 2.6447 -2.8024 1.6878 -0.9781 5.7930 -2.6585 3.4192 0.6845 -3.8357 1.2225 0.1607 2.5362 0.4540 0.4738 -4.9046 2.2705 2.1212 0.4954 -0.7960 -2.0847 2.5757 -5.1670 -0.8986 3.9874 2.1310 0.2998 1.1080 0.6869 -1.9461 3.6263 -0.0284 1.5375 -1.5911 1.0158 -3.8957 3.6030 -2.8205 3.7016 -4.1442 2.1698 -4.0146 -1.1599 -5.9947 -2.2868 2.6118 5.9443 -3.8249 -0.7064 -4.6286 -3.5640 -0.4155 -7.0203 -2.8503 3.7002 5.3894 -1.2266 1.9075 5.2460 -3.2000 0.4600 -4.3870 -2.8949 0.8472 -6.7605 -2.4007 4.1676 4.0905 -0.7997 2.3487 4.0492 3.2927 1.3436 -1.2313 -5.2357 3.5790 -0.7505 6.0009 -4.1217 3.0995 -3.1107 3.6834 -5.0518 -1.1636 3.0025 1.0120 1.7658 -2.8681 1.6528 1.7186 0.7886 0.6339 -3.8834 3.8093 -1.3926 5.0477 -4.6442 2.0370 0.4824 -6.2418 1.6010 4.9665 -6.1529 2.0004 -3.0517 4.2889 -3.6728 3.1062 -3.3849 1.1793 1.9598 -0.3905 1.5470 -2.8411 2.8997 -0.7902 -2.7372 1.2789 -5.4960 -1.4277 3.5086 3.4351
3.9645 -0.4509 7.8155 -0.7016 -5.6472 -2.4422 0.2888 -6.2804 -0.2791 -2.3186 4.1321 -4.3868 -0.7085 5.3168 -2.9205 3.3481 1.1512 4.9679 -5.8154 2.9161 -0.6869 6.6107 -1.7864 5.3723 5.9241 -6.7717 1.4509 4.6677 -7.1509 3.3180 7.0708 -0.6413 3.4274 -2.9884 4.0380 0.6136 3.5322 -1.0304 1.6910 0.2044 -3.0980 2.1988 -3.0384 1.2117 -2.2243 3.5726 -0.8451 6.4128 4.2917 -4.2236 1.8981 -0.5604 -0.8111 -0.9441 3.8760 -5.6491 1.6106 0.5916 -3.9915 -1.1553 -5.6936 5.2985 -1.1684 -1.1935 -0.7942 -3.3486 0.6302 -1.6085 -0.7036 -0.7184 1.3071 -2.1393 2.2217 -3.2743 1.0692 -3.2433 3.8647 -1.6819 4.0605 -1.8456 3.7925 -7.8441 8.2799 1.0246 1.0109 -2.0579 -6.7895 -6.3941 8.3061 0.9584 -8.5300 7.3058 0.4007 1.1798 -2.7213 -5.6316 0.1254 -0.9083 -6.8452 -5.7337 7.3551 0.2738 -7.8185 6.2799 -0.3410 0.4598 -2.2998 -4.4436 -0.5238 -0.5031 -5.7394 -0.3592 -5.1600 -1.0562 -1.3423 3.9868 -3.2438 4.2736 0.0433 5.4109 -5.1958 4.1698 -0.2920 -0.3972 -0.0975 -2.2652 3.0909 -3.3564 2.2206 0.1994 -2.8976 -0.1855 -1.9295 3.3536 -1.9964 4.8076 -0.6863 4.1990 4.8446 -6.5889 2.2479 6.2731 -1.0236 4.2800 -3.6991 4.0109 -0.3888 3.5766 -1.9512 2.5022 0.8581 -3.0946 1.1587 -1.9916 1.8466 -2.1403 -6.4741 6.2930 -0.3875 -0.3428 -1.2205 -4.4882
5.1555 -2.1308 7.2971 2.4624 2.4427 -1.5107 0.9871 1.5411 -3.2648 -6.7497 0.8545 -0.7842 -5.4694 2.0521 -2.5351 6.4487 -0.1744 5.0855 -2.7853 3.9552 2.8575 8.0350 -2.5438 3.3700 2.3627 -5.5475 4.2536 0.3319 -6.3614 3.6169 6.5021 -4.2394 3.0929 -2.9387 1.3697 1.9215 3.9520 -0.5370 1.9234 -0.1832 -1.0181 1.3057 -2.1964 1.4077 -1.7971 5.9811 -2.4128 6.0653 2.2089 -3.7729 2.1010 -1.0248 -2.2948 -1.7631 0.9990 -4.1597 2.9217 1.7393 0.0902 -1.4090 -1.8168 4.1451 0.6510 -2.5809 -2.0780 -3.6806 0.3610 -1.8575 -1.8259 -2.9067 -0.7962 -1.6427 1.9006 -1.8331 0.7042 -4.1013 2.1376 0.0664 4.4335 -2.4554 3.1078 -2.7930 7.3336 -2.0362 -1.9620 -0.0321 -7.3968 -3.0575 5.9519 -2.3944 -2.2221 7.6261 -0.8539 -1.3106 -1.1873 -7.1700 -2.8866 0.4859 -6.4047 -2.7240 4.9616 -1.5479 -1.8704 6.5583 0.0652 -1.5046 -1.8968 -5.9167 -3.0774 -0.1777 -5.2506 1.3276 1.4902 -1.7951 -5.4586 0.8944 -1.5642 5.6306 -1.4374 4.9682 -3.0444 3.7457 1.4427 -1.9138 -1.3469 -2.5345 2.2732 -2.2632 2.0289 0.5425 -0.7092 -0.9480 -4.2581 0.8837 -0.6358 5.7194 -1.9908 3.5630 1.1803 -5.4811 3.5976 6.7597 -3.0639 3.3307 -3.3362 2.2845 1.2079 3.6381 -1.6638 2.3064 0.7023 -1.1930 0.4707 -3.0029 0.5642 -1.4185 -2.1255 5.2784 -0.2614 -2.3337 -1.3985 -4.9809
8.3609 -1.8138 0.7575 -2.8205 -5.8168 1.4934 -4.0397 -4.5932 3.2450 1.1308 3.4089 0.8711 -1.0178 2.7329 1.9078 6.5327 -0.1091 -0.9659 -1.2305 6.3783 -2.1319 4.9330 2.4489 0.6676 5.8940 -5.5775 4.3010 3.6630 -5.7487 4.7490 4.9532 1.6179 2.8171 -1.0293 3.4715 -3.1842 2.4680 -1.1658 0.5707 0.2028 -1.9095 3.4023 -2.6668 1.0680 -0.5021 6.8685 -1.6578 0.9338 3.9447 -3.6290 2.5309 -0.7030 -2.3905 -0.3814 4.5806 -3.6839 3.9016 -1.7123 -3.9789 2.7464 -3.2644 5.5011 -1.1595 -0.9576 -1.6231 -2.7162 -1.3533 -2.3623 0.9210 -0.6610 -0.0210 -0.9246 1.6127 -3.2021 2.0890 -1.4043 3.4754 -0.8998 4.3704 -0.8508 1.8444 -7.1596 4.2373 -2.4037 -4.0111 0.0224 -5.2263 -6.6727 5.5682 -2.7191 -6.3841 3.3809 -1.7152 -2.8641 0.7059 -5.0623 -4.1720 -1.2841 -4.6135 -5.4432 5.9465 -2.3263 -5.0579 3.7891 -1.2884 -1.8041 0.1538 -4.2378 -3.1900 -1.7974 -3.8513 -3.0099 -4.4707 2.1479 -0.0062 2.4195 0.8301 6.4160 -0.2694 0.5351 -2.2185 5.3187 -2.2393 -1.2518 -1.2934 -1.2662 2.8514 -2.5818 2.5053 -0.7353 -3.3957 1.7420 -0.5977 2.3259 -0.5632 4.9939 0.0822 0.9405 4.6252 -5.1068 4.3558 4.9632 1.4381 1.6037 -1.4767 4.0035 -2.1701 3.1900 -1.4870 1.5110 0.3834 -2.7388 2.5155 -1.4505 1.0829 -0.6635 -4.5997 5.0162 -1.5951 -1.9729 -1.0352 -3.6300
3.1346 -6.9849 5.7923 5.6971 1.2223 0.0622 5.2072 3.1393 1.5302 -3.1936 -0.7492 -3.8239 -3.7727 0.7964 -5.6777 5.7261 -5.1642 4.7233 -6.5098 3.6957 -0.8299 2.6017 -6.7228 2.1110 -0.6320 -4.1232 4.2963 -1.5980 -2.2053 5.0616 4.2055 -5.9668 0.6412 -4.2992 4.0256 -2.3619 4.7133 -2.2386 2.4437 1.5061 1.0475 2.1575 -1.7257 1.9048 -1.4355 3.3349 -5.6277 5.1637 1.0412 -2.2387 2.9087 1.4234 1.0903 -2.1212 0.7109 -2.1997 4.3827 3.4038 2.1682 0.1706 -5.2092 1.8674 0.0579 1.6513 2.5906 -4.0591 1.3099 1.4018 -0.7070 -0.5280 1.7493 -3.4117 2.4071 -0.9502 1.3902 -4.1137 1.7438 -2.7147 3.1928 -3.9131 2.9053 -7.3628 -1.6842 1.1069 1.8214 6.8081 -4.7843 -6.2502 -1.7376 0.1758 -7.7164 -0.5143 1.6681 1.1527 6.0195 -5.6446 2.4643 6.2288 -3.6183 -5.5772 -0.6152 -0.1359 -6.9906 0.6976 1.3332 1.0699 4.5900 -5.4033 2.3901 4.9045 -3.3950 4.6590 1.8585 0.9517 -2.8808 0.5737 -4.4824 4.4411 -5.6957 4.1365 -5.7804 2.4925 -1.1997 0.7503 2.1967 -2.9071 2.4018 -1.6274 2.6654 2.5199 0.9538 -0.0339 -2.9245 1.7631 -3.5394 4.1370 -4.9973 2.8267 -0.6353 -2.8059 4.6095 3.6698 -5.9374 1.7464 -4.6602 2.8746 -2.1387 3.5557 -2.6115 2.6324 2.0776 0.3883 1.2939 -1.6865 1.8088 -2.6592 -5.9761 0.6541 0.4506 1.6459 4.0550 -4.3111
7.2042 -4.0368 5.5469 2.3856 1.9320 0.8232 0.2295 3.0794 1.1191 -5.8865 2.9865 -2.7586 -4.8015 1.0194 -3.8061 6.7031 -0.9764 4.8186 -0.0995 3.3128 -3.3144 8.1617 -1.0820 1.6670 4.0301 -5.9591 -0.3190 2.0378 -6.8074 -1.0254 7.3568 -3.0947 0.8812 -2.0910 4.1125 -0.7819 4.0887 -0.7345 0.9966 1.0993 -1.6513 3.5275 -2.3741 0.1219 -1.6302 7.4782 -3.2759 4.2725 2.7555 -3.5226 0.0879 -2.4966 -0.2404 1.8733 2.0639 -4.8396 0.3511 0.2954 0.6306 0.8844 -1.8024 4.8352 -4.1549 -4.7290 -1.2661 1.5755 -1.3161 -1.0353 1.5834 -3.9375 0.4686 0.0580 1.5849 -1.7813 1.2641 -2.8132 2.7067 -2.4742 4.9451 -2.5666 2.1270 -1.8363 9.1142 -4.1601 -5.3980 -5.3386 0.4251 -2.9130 8.3630 -3.5400 -0.8377 8.4683 -4.7879 -4.3102 -5.0448 1.1599 -6.3129 -4.2832 0.0287 -2.9016 7.0183 -3.5727 -0.8177 7.0168 -4.8136 -4.0587 -3.6731 1.5655 -6.0700 -3.0100 0.3868 1.0135 1.8337 1.4410 -5.0823 1.7361 -2.5073 6.4034 -2.2400 4.0482 -1.0738 4.3205 -2.9323 -3.5434 -0.6513 0.8685 2.7016 -2.6885 1.3482 -0.1481 -0.2844 2.0073 -3.8379 2.0478 -1.7034 6.1293 -1.9014 2.6022 2.6808 -5.9562 -0.4280 7.2653 -2.1279 1.6303 -2.0306 3.7095 -1.9415 3.9628 -1.8664 1.4535 0.9067 -1.3049 2.3647 -3.2749 0.7775 -1.1163 -1.7920 6.3203 -4.2016 -4.8965 -2.6911 1.1825
5.5378 -1.7296 6.8794 0.3950 -5.6024 -4.0230 0.0665 -6.2207 -1.6655 -1.3166 5.4834 -1.4076 -1.4598 4.8626 0.9841 2.5162 -0.6021 6.1799 -5.2456 2.9278 -3.3115 5.7952 -0.3344 3.3021 4.7074 -7.5065 2.7982 4.3026 -6.0102 4.4705 4.1370 0.9562 2.3591 -4.5046 1.6855 -0.3277 1.1787 -1.5120 2.4903 -0.5358 -3.5367 0.7893 -1.7224 2.2983 -2.9750 4.4875 -2.0641 5.8483 3.3789 -4.4568 2.0584 -0.0753 -0.7439 -1.9676 3.0613 -5.8946 2.4002 1.0141 -4.0080 -2.2440 -6.0192 4.5222 -1.6503 0.8179 1.0590 -3.4402 0.9603 -1.6761 -1.5521 -0.2888 1.5909 -1.2872 1.7684 -3.4756 0.5374 -3.3463 3.5031 -1.1709 3.2906 -2.0166 3.2645 -9.7866 4.7671 0.3657 4.9223 1.8644 -4.3406 -8.5536 4.5735 1.1075 -9.7589 4.8645 -0.9756 4.3600 0.7330 -4.8026 4.1529 2.7681 -3.5040 -7.3812 4.4925 0.4538 -8.4928 4.7775 -1.6827 2.9776 0.4258 -4.4802 2.8745 2.4819 -3.2006 0.0318 -5.0807 -2.6550 -1.1712 4.3585 -0.4088 3.7904 -0.8024 5.3939 -5.6084 3.0907 -1.9146 0.5290 0.6404 -2.0127 2.0933 -3.6671 1.9337 0.3433 -2.9782 -1.3609 -2.0177 3.1391 -0.7281 3.4930 -0.7471 3.9109 4.0867 -6.4341 3.3456 4.4899 0.0530 3.1136 -4.4379 2.6704 -1.0600 2.1342 -2.2851 2.5648 0.4638 -3.3551 0.0965 -1.3505 2.3093 -1.8055 -7.3520 4.5841 -0.9964 2.2669 1.2576 -3.6969
0.4035 -5.5874 4.8273 7.4198 1.7843 -0.2600 7.0129 2.6023 -2.5442 -2.1244 -1.7980 -1.8408 -0.7517 -0.7463 -3.6159 0.5547 -2.0285 4.9881 -4.2530 3.3137 -3.7814 -2.3391 -2.9263 2.1426 6.4807 -5.0414 0.9863 5.2617 -6.7634 1.8522 -1.0336 -4.7651 1.6687 -3.5496 2.5036 -0.7712 2.0336 -0.8939 2.1412 3.8762 -1.5184 -1.7522 -0.0733 2.3572 -2.4487 1.1459 -4.3563 4.3695 4.0058 -3.6290 1.6958 2.6709 1.6625 0.2891 4.1494 -4.8736 0.8493 5.5964 0.8086 -1.6323 -5.9406 2.7093 -2.1939 0.8956 3.0388 1.2982 3.3172 1.2970 -0.9611 0.3463 1.3751 -0.3880 4.1458 -1.5011 0.5538 -2.5775 1.2127 -2.4353 1.1171 -3.0007 1.8548 -8.7773 -0.3474 -1.2469 -1.8289 6.2378 0.4485 -8.8180 0.3333 -2.5286 -7.8223 -0.0421 -0.3503 -2.3016 5.0893 0.9650 -0.4050 6.3933 0.2107 -7.8972 1.2684 -2.8241 -6.8366 0.9762 -0.6631 -1.3888 4.0029 1.2718 0.4421 5.3881 0.4979 6.3587 2.0683 -1.2941 -1.0935 -0.7396 -2.1450 0.1728 -3.2230 4.1519 -4.6788 2.2427 -2.8914 1.3413 2.3359 0.0311 3.2578 -2.5822 0.9001 4.5044 0.5255 -0.6235 -1.5389 0.6143 -1.6273 -0.0331 -2.8169 2.7052 5.3260 -5.6687 1.3132 -1.1547 -3.6267 2.1093 -3.5585 2.0264 -1.9015 2.0957 -2.0385 1.7032 4.1311 -0.9323 -0.7046 -0.3580 1.5548 -1.5647 -6.8573 1.5889 -1.8609 -0.0722 4.1352 1.0261
2.4725 -5.8920 -3.5547 4.8626 3.7227 2.1251 4.9949 2.3883 4.1889 -1.1221 5.3742 -3.4909 -2.5834 6.5295 -1.8523 3.8860 -7.1176 -0.5788 -3.6629 0.6749 -3.2483 1.6549 -7.1637 1.4372 3.5262 -3.0172 6.4086 5.3427 -4.0925 5.5413 -0.1071 -5.9586 0.5801 -4.9967 3.0680 -1.3944 1.3996 -2.7170 0.6461 4.8574 -0.6205 0.2480 -0.8557 2.1078 -1.8681 2.1410 -6.6272 -2.2794 3.2121 -2.9529 3.3588 1.6037 2.5162 0.2912 4.2493 -2.3555 4.2830 3.4611 1.6961 2.3939 -4.6555 2.3006 -4.7673 0.1743 3.0803 2.2302 2.0641 1.1462 0.4460 -0.5940 3.4916 -0.0256 3.1996 -1.1060 1.7961 -3.0904 3.4726 -2.6433 2.8534 -4.5181 0.7655 -8.0657 1.0150 -7.0138 -1.9280 0.4450 4.8720 -6.8158 0.2785 -7.0648 -8.1684 2.1162 -6.2485 -2.5167 1.5893 4.4801 -0.5978 0.1117 4.3945 -5.7598 0.6944 -6.3435 -7.0270 2.5695 -5.4728 -1.8230 2.4892 3.5760 0.0471 0.9466 3.5605 4.8003 2.3260 2.6942 -1.6349 5.3781 -2.0707 2.9603 -6.0688 -1.1437 -4.6319 1.7526 -3.3563 0.1779 2.5917 0.7961 3.4511 -2.5228 1.9255 3.4190 1.1487 0.9796 -2.2600 4.0698 -1.6242 2.1025 -5.3620 -0.1237 4.4484 -3.2656 5.4487 1.0989 -6.1858 0.6488 -4.2680 2.8176 -2.3520 2.4425 -3.2279 1.0451 3.9125 -0.2789 0.9545 -1.1781 3.0944 -1.2137 -5.8751 1.8750 -5.5028 -0.5981 2.1729 3.1183
4.3372 2.4095 0.8200 -3.0691 -5.5361 0.4262 -1.3410 -7.2523 0.7727 -1.3336 3.4896 -2.9447 -0.2053 4.8061 -1.1753 4.5634 1.0814 4.3598 -5.7815 3.9262 1.6787 6.9869 -0.5233 3.1195 4.5588 -6.8700 3.6202 2.4473 -6.9772 4.4764 6.6221 -0.8183 0.8646 -3.1324 3.3165 1.8781 2.8509 -1.6540 0.6962 -0.3844 -2.5383 2.5544 -2.9840 0.8975 -0.9242 4.9617 2.1996 2.1787 3.4472 -4.3481 2.6407 -1.1529 -1.7334 -1.0435 3.4767 -4.8370 4.0697 -0.6737 -4.9946 0.0553 -5.5946 3.8797 -0.7064 -0.7565 -0.2242 -2.9804 -0.1731 -2.7536 -0.7125 -0.6997 0.6310 -0.6762 1.3808 -3.7022 1.6101 -2.8558 3.5498 -0.4023 4.0126 -1.4435 2.6874 -6.5940 7.2944 -3.0909 2.6100 -0.4142 -5.6192 -5.2469 6.7537 -3.0938 -7.5542 6.7084 -2.3534 1.6297 -1.3278 -5.7382 2.5306 0.6056 -4.5889 -4.9558 5.6683 -2.3553 -7.2386 5.5422 -1.5474 0.4922 -1.2931 -4.8357 1.4759 0.6409 -3.7558 -1.6547 -5.7814 0.8929 -0.6994 3.4368 -1.5749 4.3345 1.0131 2.8703 -4.9137 4.3174 0.5768 -0.4206 -0.5045 -1.5293 2.4335 -3.2369 2.4865 -0.7046 -3.5226 0.4002 -1.5980 2.8451 -0.5046 4.7464 -0.2952 2.2488 3.4035 -6.3301 4.0771 6.2027 -0.5774 1.9941 -3.5668 3.6481 0.7772 3.1045 -2.0458 1.8327 0.1009 -3.1924 1.6339 -1.8655 1.3712 -0.7448 -5.9852 5.0540 -1.5320 0.4257 -0.3587 -3.8697
2.0335 -1.9901 7.3293 1.0405 -5.0864 -3.6660 3.4457 -5.3647 -3.2078 -4.2592 3.0541 -3.1833 -2.5424 4.6949 -3.8869 -0.0419 -0.0175 4.9708 -1.4973 4.5158 2.4407 3.3514 1.9229 4.5826 7.3626 -4.2650 2.0641 5.9514 -5.6815 3.1639 4.4248 0.2051 5.6952 -0.4198 4.3311 -0.0561 1.9133 -0.6947 1.8250 0.7343 -3.9770 0.7128 -2.6358 0.9421 -1.1314 1.1851 -1.8432 6.0908 4.5904 -2.9129 2.0410 -0.4126 -1.2607 -1.7040 5.1044 -4.2108 1.4550 2.2677 -3.3747 -2.3524 -3.5544 3.6233 1.6020 -1.6808 -0.7633 -3.7993 1.0025 -1.4965 -1.4673 -0.7201 1.0520 -2.4424 2.7290 -2.8260 0.4864 -2.4617 3.7279 -0.9489 2.8308 -1.3907 3.8227 -7.2408 5.8002 1.7173 -0.6947 -1.4559 -7.9201 -6.7019 5.3170 0.4589 -6.6040 5.5313 2.8710 0.1389 -0.7049 -7.1789 -1.8936 -2.0127 -7.3201 -5.5566 4.6121 0.4439 -5.3609 4.7808 2.8548 -0.1630 -0.4512 -5.7821 -2.1645 -1.7897 -6.0214 2.1391 -4.8487 -2.6591 -2.7800 3.3004 -3.3615 1.2874 -0.4357 5.5541 -2.4077 4.5710 1.3052 -0.5649 -0.3193 -2.8755 3.0844 -2.8169 1.8915 1.1951 -2.9334 -1.3838 -1.9570 3.0471 -2.1158 2.3608 -0.2236 4.5140 6.1499 -4.7993 2.3425 3.4991 0.6202 5.0083 -1.6335 4.1756 0.0619 2.5627 -1.5151 2.4716 1.5140 -3.3025 0.0431 -1.8464 1.5679 -1.8310 -4.8446 4.3592 1.6863 -1.2589 -0.9874 -5.2114
5.7568 -4.8689 -2.3024 2.6688 1.8267 6.4532 4.0913 0.1030 5.4315 -0.5795 4.3277 -3.8794 -2.3410 5.6620 -2.7577 2.9315 -2.6430 -3.1639 -2.6728 -0.4865 -3.4003 2.9756 -6.5905 -1.3853 4.1829 -5.1299 5.4951 2.4272 -6.3235 4.6593 0.8210 -5.7925 -1.2158 -4.3262 1.8039 -1.7413 1.4929 -2.1589 0.2418 4.1909 -0.0768 1.6979 -0.5065 1.5246 -1.1579 4.9407 -3.6133 -2.1201 2.4837 -3.7882 2.9687 1.2349 2.4079 1.3275 3.6113 -4.7498 3.2630 2.0294 0.8547 4.2810 -3.6060 1.0141 -5.0789 -0.1120 4.2280 2.2849 1.1528 1.1375 2.0287 -0.4590 3.5293 -0.0055 2.5238 -1.4066 2.6039 -2.3999 2.4071 -2.8777 3.0754 -3.8298 -0.0049 -7.2454 0.2783 -7.2130 -3.2605 3.9441 5.1719 -7.1780 1.3076 -6.1919 -6.1540 -0.4497 -7.5090 -3.3526 4.8563 4.1876 -2.0928 3.0857 5.2618 -6.0242 1.5337 -5.5390 -4.9105 -0.2152 -6.7961 -2.2933 4.9665 3.2008 -1.1061 3.1945 4.3545 3.1918 1.2829 5.1473 -1.2944 4.5914 -2.5755 3.4935 -3.8669 -2.4779 -3.6925 0.5167 -3.6516 -0.1321 3.0584 1.3215 2.9880 -2.6710 2.0819 2.3693 0.9975 2.8134 -1.8970 3.3629 -1.9170 2.6057 -4.2075 -1.3048 3.3083 -5.4877 4.5251 2.0314 -5.5967 -1.2966 -3.5169 1.6315 -2.6504 2.4122 -2.8367 0.6932 3.1263 -0.2041 2.2990 -0.8867 2.6830 -1.0111 -4.8526 0.7248 -5.8354 -1.2248 4.1515 3.2659
0.9977 1.9912 4.3939 3.4242 -4.5749 -4.0329 2.0254 -5.3172 -2.1564 -3.5595 2.9433 -3.9873 -2.6666 5.2475 -3.8002 1.0866 -1.2723 6.3099 -3.9625 3.7278 2.2892 3.9618 -1.5500 5.1139 1.5492 -7.1830 2.8738 1.8109 -7.6302 0.6534 4.1057 -0.2579 3.2114 -2.2131 4.7427 0.4957 0.0974 -0.9614 1.8403 -0.7525 -2.5265 -1.1023 -1.2839 1.4044 -1.2128 1.4712 1.0240 5.4525 1.3845 -4.4432 1.7848 0.9916 0.1344 -3.0524 0.6023 -5.6662 1.3561 2.5274 -2.9150 -2.4589 -4.1001 1.7951 0.8712 2.3671 2.1480 -3.4476 1.6761 -0.6974 -2.0769 0.0156 2.3587 -2.8730 1.2596 -2.7901 0.0203 -3.0548 3.4535 -1.2247 1.4514 -2.1085 3.3105 -7.8461 0.2568 -0.5311 5.3955 3.6995 -0.8449 -6.8797 0.8184 -1.4569 -7.5616 0.1904 0.7819 4.6062 4.5538 -1.5206 5.2315 2.2673 -1.0183 -5.7002 1.2766 -1.0018 -6.2936 0.6984 1.2761 3.5779 4.0432 -2.4092 4.2885 1.7933 -1.8521 2.2407 -4.2167 -3.1681 -2.3797 3.7856 -3.5620 1.0978 -0.3924 5.0845 -4.1326 3.3114 0.9052 1.2099 1.5782 -2.6533 0.6796 -3.2105 1.2702 1.2764 -2.0785 -2.2907 -1.9317 3.5547 -2.1301 1.9408 -0.9287 3.9568 1.4046 -6.9120 1.5550 3.4392 -0.8710 4.0415 -3.0093 3.9058 0.0793 0.7152 -1.9813 2.1522 0.4761 -2.4905 -1.0766 -1.0621 2.3153 -2.0066 -5.4061 1.2396 0.4221 3.4099 2.7166 -2.5538

>  <OB_ATOM_TYPES> (2mipC1)
C.3 C.3 C.3 C.3 C.3 C.3 N.3 N.am O.co2 O.co2 O.2 O.2 O.2 O.2 O.2 C.3 C.3 C.3 C.3 C.3 C.3 C.3 N.3 N.am N.am N.am N.am C.ar C.ar C.ar C.ar C.ar C.ar C.ar C.ar C.ar C.ar C.3 C.3 C.3 C.3 C.3 C.3 C.3 C.3 C.3 C.2 C.2 C.2 C.2 C.2 C.2 C.ar C.ar

>  <ENSEMBLE_RMSD> (2mipC1)
2.841 2.980 3.178 3.227 3.234 3.353 3.451 3.469 3.501 3.512 3.528 3.572 3.575 3.614 3.638 3.737 3.763 3.772 3.801 3.853 3.942 3.946 3.958 3.961 4.027 4.079 4.112 4.136 4.136 4.157 4.159 4.160 4.176 4.212 4.288 4.310 4.339 4.345 4.474 4.502 4.592 4.641 4.649 4.663 4.730 4.762 4.823 5.000 5.047 5.067

$$$$
