
 OpenBabel03071213D

 18 20  0  0  0  0  0  0  0  0999 V2000
   -7.3300  -31.7920  -15.3690 C   0  0  0  0  0
   -6.9050  -24.7740  -12.8920 C   0  0  0  0  0
   -7.7730  -31.5110  -13.9330 C   0  0  0  0  0
   -6.2590  -30.7550  -15.7650 C   0  0  0  0  0
   -6.9940  -25.1210  -14.3940 C   0  0  0  0  0
   -7.7300  -25.7770  -12.0620 C   0  0  0  0  0
   -8.2710  -30.0700  -13.7270 C   0  0  0  0  0
   -6.7380  -29.3290  -15.6150 C   0  0  0  0  0
   -6.5630  -26.5590  -14.6380 C   0  0  0  0  0
   -7.4210  -27.2270  -12.4630 C   0  0  0  0  0
  -11.8960  -26.6870  -15.3840 C   0  0  0  0  0
  -10.7910  -26.7340  -16.3260 C   0  0  0  0  0
  -11.6170  -26.9260  -14.0510 C   0  0  0  0  0
   -9.4430  -27.0060  -15.9010 C   0  0  0  0  0
  -10.2900  -27.1930  -13.6110 C   0  0  0  0  0
   -7.2300  -29.0100  -14.1940 N   0  0  0  0  0
   -9.1620  -27.2400  -14.5290 C   0  0  0  0  0
   -7.6760  -27.5180  -13.9960 C   0  0  0  0  0
  1  3  1  0  0  0
  1  4  1  0  0  0
  2  5  1  0  0  0
  2  6  1  0  0  0
  3  7  1  0  0  0
  4  8  1  0  0  0
  5  9  1  0  0  0
  6 10  1  0  0  0
  7 16  1  0  0  0
  8 16  1  0  0  0
  9 18  1  0  0  0
 10 18  1  0  0  0
 11 12  2  0  0  0
 11 13  1  0  0  0
 12 14  1  0  0  0
 13 15  2  0  0  0
 14 17  2  0  0  0
 15 17  1  0  0  0
 16 18  1  0  0  0
 17 18  1  0  0  0
M  END
>  <MOLID> (2pcpB1)
2pcpB1

>  <SMILES_CANONICAL> (2pcpB1)
C1CCC(CC1)(N1CCCCC1)c1ccccc1	

>  <FINGERPRINT> (2pcpB1)
0000000000000000000000000000000000000001000000000000000000000000000000000001000000000001000000100000000000000001000001100000000000000000000000000000000000000000000000000000000000000000000000000000000000000000000000000000000000100010000000000001000000000000000000000000000000001000000000000000000000001000000010001100000000001000001100000000000000000000010100000000000110000000000000000000000000000000000010000000001000000000001000000000000000000000000000000000000000000100000000000000000000000000000000000000000000000000000000000000000000000000000000100000000000000000000000000000001000000000001000000000000000000000000000000000001000000001000000000000000000000001000000000001100000000000100000000001000000000000000000000000000000000000000000000101000000000000000100000000000000000000000000000000000011000000000000000000000000000000000000000000000000000000000000001001000000000000000000000000000000000000000000000000000100000010000000000000011000000000000000100010000000000110000000000000000000000000000000000010011000000000

>  <MACCS166> (2pcpB1)
000000000000000000000000000000000000000000000000010000000000010001000000001100000000110000000000011000000000001100000101110000011000100011000100101100001001010010101000

>  <OB_MW> (2pcpB1)
243.199

>  <OB_logP> (2pcpB1)
4.2698

>  <OB_PSA> (2pcpB1)
3.24

>  <OB_MR> (2pcpB1)
81.944

>  <OB_ATOMIC_CHARGES> (2pcpB1)
0.0028559848 0.0001119453 0.0173804108 0.0173804108 0.0016747802 0.0016747802 0.0722732831 0.0722732831 0.018870622 0.018870622 -1.89308e-05 -0.0002801446 -0.0002801446 -0.0030255836 -0.0030255836 -0.2717012685 -0.0093135385 0.0642790718

>  <MCT_HBD> (2pcpB1)
0

>  <MCT_HBA> (2pcpB1)
1

>  <ENSEMBLE_TOTAL> (2pcpB1)
48

>  <ENSEMBLE_COORDS> (2pcpB1)
1.0083 -3.9459 -0.9884 1.4333 3.0721 1.4886 0.5653 -3.6649 0.4476 2.0793 -2.9089 -1.3844 1.3443 2.7251 -0.0134 0.6083 2.0691 2.3186 0.0673 -2.2239 0.6536 1.6003 -1.4829 -1.2344 1.7753 1.2871 -0.2574 0.9173 0.6191 1.9176 -3.5577 1.1591 -1.0034 -2.4527 1.1121 -1.9454 -3.2787 0.9201 0.3296 -1.1047 0.8401 -1.5204 -1.9517 0.6531 0.7696 1.1083 -1.1639 0.1866 -0.8237 0.6061 -0.1484 0.6623 0.3281 0.3846
0.9870 -3.8761 -0.6414 1.6515 2.8489 1.5392 1.0110 -3.4105 0.7993 1.5822 -2.8166 -1.5456 1.6253 2.6587 0.0402 0.5451 2.0531 2.1926 0.3773 -2.0400 0.9305 0.9325 -1.4677 -1.3053 1.6912 1.1904 -0.3306 0.6655 0.5866 1.8329 -3.4219 1.0977 -1.1240 -2.3785 1.6704 -1.7484 -3.1912 0.2265 0.0116 -1.0281 1.4095 -1.2896 -1.9393 0.0047 0.4471 1.0756 -1.0685 0.0934 -0.7906 0.6166 -0.2225 0.6053 0.3163 0.3206
1.0157 -3.6641 -0.6192 2.2316 2.6060 1.6577 0.0129 -3.0507 0.3333 1.8196 -2.6159 -1.3597 2.6065 1.9107 0.3655 0.8173 2.2970 2.1026 0.5792 -1.8344 1.0386 1.2018 -1.2398 -1.2317 1.3754 1.5200 -0.4246 0.4550 0.8580 1.8027 -3.6045 0.6304 -1.1785 -2.6505 1.3281 -1.8184 -3.2624 -0.1452 -0.0024 -1.2827 1.2936 -1.3380 -1.9972 -0.1589 0.4502 1.1412 -0.8131 0.1613 -0.9397 0.5763 -0.2460 0.4809 0.5020 0.3066
0.2522 -3.4866 -0.7425 1.4786 2.9803 1.6233 -0.0098 -2.9512 0.6450 0.4157 -2.3216 -1.6899 1.5016 2.7940 0.1239 0.4776 2.0409 2.2553 1.1052 -2.0270 1.0871 1.5347 -1.4072 -1.2327 1.7801 1.3500 -0.2436 0.7908 0.6051 1.8873 -3.2235 0.5845 -1.2422 -2.2023 1.1115 -1.9389 -2.9724 -0.0446 0.0400 -0.8535 1.0399 -1.4121 -1.7229 -0.0950 0.5327 1.4428 -0.9721 0.1507 -0.5976 0.4642 -0.2165 0.8026 0.3347 0.3731
1.5087 -3.4740 -0.3930 2.4436 2.2479 1.6428 0.1746 -3.1008 0.2150 2.0953 -2.3467 -1.2188 2.5442 1.8665 0.1834 1.6521 1.2131 2.4092 0.2190 -1.7514 0.9050 1.2405 -1.0966 -1.1802 1.1687 1.6604 -0.4190 0.2839 1.0175 1.7878 -3.7398 0.6551 -1.2605 -2.7036 0.8024 -2.1037 -3.4957 0.4904 0.1591 -1.3471 0.7967 -1.5915 -2.2366 0.4825 0.6293 0.9703 -0.7169 0.2006 -1.0954 0.6500 -0.2720 0.3173 0.6040 0.3064
0.3739 -3.3514 -0.8598 1.9035 2.8840 1.6725 -0.1056 -2.8448 0.4795 0.6931 -2.1727 -1.7484 2.5328 2.1298 0.5187 0.5900 2.2771 2.1223 0.9123 -1.9151 1.1083 1.7093 -1.2589 -1.0937 1.4654 1.5102 -0.3577 0.5586 0.7876 1.8525 -3.4088 0.3971 -1.2396 -2.3960 0.8063 -2.0219 -3.1412 -0.0415 0.1161 -1.0409 0.8130 -1.5065 -1.8840 -0.0326 0.5902 1.3750 -0.8350 0.2551 -0.7686 0.4165 -0.2441 0.6311 0.4305 0.3567
1.2670 -3.5340 -0.4989 2.4269 2.1733 1.6811 1.0098 -3.0522 0.9133 1.8465 -2.4279 -1.3569 2.5610 1.8008 0.2225 1.5981 1.1416 2.4120 0.2315 -1.7516 0.9111 1.0204 -1.1616 -1.2419 1.1974 1.6423 -0.4195 0.2362 1.0002 1.7627 -3.7317 0.7731 -1.3390 -2.6994 1.1921 -2.0909 -3.4951 0.2645 -0.0022 -1.3524 1.1434 -1.5588 -2.2444 0.2295 0.4875 0.9381 -0.7281 0.1506 -1.1073 0.6921 -0.3105 0.2976 0.6025 0.2776
0.4889 -3.4010 -0.6282 2.3435 2.4570 1.7647 0.9829 -3.0575 0.7603 0.4374 -2.1915 -1.5355 2.5941 2.0175 0.3406 1.5476 1.4048 2.5038 0.5847 -1.6509 1.1498 1.3843 -1.0969 -1.0844 1.2830 1.7230 -0.3607 0.2448 1.1077 1.7874 -3.5026 0.3172 -1.4981 -2.5451 1.0232 -2.1236 -3.2280 -0.2880 -0.2098 -1.2356 1.1626 -1.5169 -2.0204 -0.1364 0.3597 1.1665 -0.6338 0.2824 -0.9523 0.5969 -0.3234 0.4263 0.6462 0.3317
0.5386 -3.3299 -0.5658 2.2646 2.5011 1.7674 0.0947 -2.7638 0.7618 0.5949 -2.2101 -1.5782 2.5486 2.0939 0.3397 1.5259 1.4006 2.4935 1.0088 -1.6436 1.2123 1.5346 -1.1162 -1.1154 1.2637 1.7295 -0.3760 0.2505 1.0333 1.7618 -3.5123 0.3090 -1.4308 -2.5741 1.0378 -2.0590 -3.1827 -0.3811 -0.1992 -1.2380 1.1302 -1.5040 -1.9477 -0.2794 0.3197 1.2777 -0.6181 0.2235 -0.9106 0.5044 -0.3525 0.4631 0.6023 0.3013
1.9373 -3.6467 -0.7305 1.9861 2.5896 0.9313 0.4775 -3.3657 -1.0225 2.6230 -2.4727 -0.0658 1.6861 2.1984 -0.4977 0.8624 2.1541 1.8431 0.1774 -1.8822 -0.9787 1.6970 -1.7779 0.9118 1.4455 0.7069 -0.6175 0.6519 0.6573 1.7470 -3.6958 1.3730 -0.7101 -2.7034 1.5923 -1.5896 -3.4004 0.7633 0.5720 -1.3440 1.2087 -1.2599 -2.1393 0.4122 0.8774 0.4331 -1.3132 0.3416 -1.0471 0.6361 -0.0734 0.3526 0.1665 0.3212
1.2687 -3.6089 -0.3005 2.4070 2.2116 1.5491 1.1170 -3.0247 1.0885 1.8158 -2.5673 -1.2542 2.5727 1.7389 0.1227 1.5617 1.2385 2.3386 0.3176 -1.7380 1.0471 0.9840 -1.3011 -1.2027 1.2242 1.5335 -0.5382 0.2151 1.0323 1.6745 -3.7742 0.9280 -1.2801 -2.9904 2.0164 -1.1957 -3.2476 -0.3653 -0.8920 -1.6272 1.8928 -0.7157 -1.9842 -0.4727 -0.4471 0.9460 -0.7679 0.1562 -1.1070 0.6945 -0.3654 0.3007 0.5594 0.2149
1.5269 -3.8858 -0.2804 1.6482 2.5448 1.7385 2.5092 -2.7902 -0.6431 0.1010 -3.4145 -0.4803 1.5137 2.6086 0.2343 0.5580 1.6818 2.3308 2.1554 -1.4894 0.0520 -0.1267 -2.0873 0.2158 1.5446 1.2204 -0.3723 0.5839 0.2905 1.7296 -3.4945 1.3588 -1.2023 -2.4536 1.4361 -2.0494 -3.2805 0.9230 0.1637 -1.1202 1.0909 -1.5930 -2.0433 0.6131 0.5861 0.7981 -1.0833 -0.3099 -0.8959 0.7113 -0.3151 0.4759 0.2712 0.1946
1.0657 -3.8290 -0.7888 1.6745 2.8428 1.5278 0.6975 -3.4542 0.6320 1.9202 -2.7484 -1.4180 1.4531 2.6899 0.0406 0.6933 1.9884 2.2968 0.1087 -2.0583 0.6930 1.2673 -1.3890 -1.2681 1.5774 1.2355 -0.3630 0.7763 0.5377 1.8654 -3.4511 1.0702 -1.0727 -3.2163 1.0480 0.2505 -2.3601 0.8428 -2.0001 -1.8785 0.7864 0.7448 -1.1171 0.6247 -1.5383 1.0469 -1.0826 0.1425 -0.8442 0.5879 -0.1007 0.5863 0.3071 0.3563
1.2778 -3.6064 -0.3339 2.4214 2.2371 1.4850 1.0031 -3.0681 1.0549 1.9219 -2.5375 -1.1921 2.5319 1.7722 0.0505 1.6424 1.2366 2.3082 0.2190 -1.7732 0.9852 1.1012 -1.2634 -1.1745 1.1591 1.5386 -0.5480 0.2683 1.0063 1.7120 -3.7715 0.9340 -1.2826 -3.1470 1.9991 -0.7521 -3.0868 -0.3421 -1.3446 -1.7953 1.8669 -0.2444 -1.8342 -0.4565 -0.8720 0.9348 -0.7784 0.1921 -1.1360 0.6865 -0.2878 0.2898 0.5481 0.2440
2.1613 -3.0885 -1.0468 2.0405 2.3794 0.9101 0.9823 -2.4014 -1.6869 2.6415 -2.2616 0.1195 1.6454 1.9788 -0.4956 0.9397 2.0244 1.8822 -0.1161 -2.1819 -0.6679 1.5171 -2.0060 1.1038 1.3644 0.4911 -0.5599 0.6220 0.5412 1.8195 -3.6723 1.4277 -0.7842 -2.8381 0.9218 -1.7103 -3.2354 1.5224 0.5940 -1.5117 0.4788 -1.3247 -2.0203 1.0732 0.9552 0.2961 -1.4572 0.5210 -1.0920 0.5376 -0.0414 0.2757 0.0201 0.4125
0.9342 -3.8135 -0.8871 0.7402 2.9519 1.3545 0.7834 -3.4687 0.5791 1.7160 -2.7355 -1.6085 1.7260 2.6576 0.2483 0.7508 1.8944 2.4325 0.2360 -2.0667 0.7465 1.1287 -1.3635 -1.3393 1.6983 1.2300 -0.2593 0.8228 0.4762 1.9052 -3.3562 1.0352 -1.0839 -3.1837 0.6249 0.1843 -2.2018 1.2723 -1.9290 -1.8452 0.4064 0.6972 -0.9623 1.0775 -1.4471 1.1039 -1.0856 0.0961 -0.7568 0.6071 -0.0773 0.6656 0.3002 0.3877
1.5655 -3.7529 -0.3216 2.2648 2.4525 1.0886 1.2747 -2.8215 -1.4775 1.9178 -2.9954 0.9427 1.6540 2.3958 -0.2955 1.8098 1.3319 1.9989 0.3040 -1.7202 -1.0954 1.8117 -1.4946 0.7647 1.3077 0.9783 -0.6990 0.4127 0.8619 1.6547 -3.8399 1.2421 -0.8462 -2.8411 1.7546 -1.5854 -3.5352 0.3795 0.2788 -1.4632 1.4514 -1.2512 -2.2573 0.0990 0.5863 0.5005 -1.1420 0.2334 -1.1560 0.6604 -0.2006 0.2696 0.3193 0.2243
1.8427 -3.6138 -0.5644 2.2614 2.5129 1.0365 0.5362 -3.1544 -1.1783 2.0704 -2.9403 0.7734 2.5316 1.5559 -0.1066 0.9334 2.2728 1.7248 0.4556 -1.6405 -1.2000 1.9034 -1.4369 0.6635 1.2485 1.0942 -0.7644 0.5119 0.8215 1.6335 -3.8773 1.1436 -0.6783 -2.9309 1.8705 -1.2983 -3.4923 0.1192 0.2722 -1.5289 1.6178 -1.0270 -2.1933 -0.1084 0.5282 0.5732 -1.1105 0.1579 -1.1487 0.6522 -0.1620 0.3031 0.3442 0.1895
1.4894 -3.4743 -0.7310 2.2230 2.2356 1.9026 0.3671 -3.1015 0.2111 1.9967 -2.2847 -1.5187 2.4548 1.9537 0.4360 1.4811 1.0873 2.5479 0.6478 -1.8049 0.9455 1.1486 -1.0487 -1.3057 1.1398 1.6959 -0.2723 0.1669 0.8305 1.8393 -3.7274 0.7270 -1.2595 -3.2841 -0.4224 -0.7229 -2.8603 1.8889 -1.2892 -1.9398 -0.4984 -0.1854 -1.6116 1.8101 -0.7990 1.0886 -0.6958 0.1079 -1.0971 0.5563 -0.2435 0.3164 0.5454 0.3367
1.6663 -3.7013 -0.2420 2.0081 2.2939 1.8536 2.6008 -2.5498 -0.5501 0.2331 -3.3180 -0.5468 2.4543 1.7787 0.5014 0.6545 1.7667 2.2814 2.1220 -1.2724 0.1111 -0.1263 -2.0040 0.1181 1.2756 1.4579 -0.3931 0.3885 0.3915 1.7071 -3.6926 1.1913 -1.2616 -2.6569 1.2807 -2.1137 -3.4551 0.8540 0.1283 -1.3086 1.0274 -1.6435 -2.2028 0.6341 0.5636 0.7702 -0.9404 -0.3354 -1.0627 0.7284 -0.3484 0.3319 0.3813 0.1699
1.7940 -3.6399 -0.9494 1.6420 2.2867 1.9401 2.6545 -2.7782 -0.0512 0.3152 -3.4286 -0.6860 1.3964 2.5652 0.4763 0.5308 1.4260 2.4919 2.2479 -1.3168 -0.0817 0.0396 -2.2002 0.1599 1.3597 1.2751 -0.3128 0.4342 0.1131 1.7453 -3.5057 1.5279 -1.2761 -2.8613 0.5277 -1.9007 -2.9194 2.1306 -0.0951 -1.5742 0.0779 -1.4085 -1.7401 1.6877 0.3738 0.8289 -1.0792 -0.3435 -1.0173 0.6054 -0.2952 0.3748 0.2195 0.2129
1.7122 -3.7112 -0.1735 2.0360 2.2848 1.7859 2.5995 -2.5562 -0.5882 0.2539 -3.3681 -0.3968 2.4689 1.7465 0.4380 0.6559 1.8191 2.1999 2.1331 -1.2626 0.0492 -0.0912 -2.0297 0.2264 1.2842 1.4189 -0.4475 0.3767 0.4265 1.6765 -3.7163 1.2732 -1.2042 -2.6735 1.5948 -1.9889 -3.4842 0.6178 0.0679 -1.3218 1.2884 -1.5604 -2.2294 0.3516 0.4690 0.7511 -0.9714 -0.3310 -1.0790 0.7106 -0.3631 0.3240 0.3670 0.1406
0.4412 -3.4470 -1.0180 1.4973 3.0148 1.5026 -0.2777 -2.9366 0.2087 0.9718 -2.2624 -1.7897 1.3849 2.7366 0.0215 0.5704 2.1089 2.2800 0.6490 -2.1016 1.0686 1.8877 -1.4203 -0.9266 1.6850 1.2798 -0.2666 0.8405 0.6513 1.9622 -3.2589 0.6432 -1.1625 -3.0968 0.5440 0.1681 -2.0999 0.6201 -2.0333 -1.7655 0.4066 0.7264 -0.8670 0.5071 -1.5108 1.3522 -1.0426 0.3674 -0.6702 0.4001 -0.0646 0.7561 0.2980 0.4667
1.6592 -3.7910 -0.6215 1.8831 2.4692 1.4274 0.5987 -3.1263 -1.4771 2.6374 -2.7858 -0.0546 1.6022 2.4180 -0.0554 0.7242 1.8754 2.1926 0.6001 -1.6163 -1.3399 1.9458 -1.6238 0.6352 1.3724 0.9962 -0.5193 0.5057 0.4308 1.7976 -3.7394 1.3272 -0.7173 -3.4220 0.0241 -0.6294 -2.7257 2.3317 -0.4648 -2.0717 -0.3688 -0.2767 -1.4681 1.9593 -0.1725 0.6465 -1.2528 0.0742 -1.0947 0.5464 -0.0880 0.3462 0.1865 0.2896
1.2743 -3.5310 -0.5559 2.4324 2.2128 1.6066 0.8613 -3.1167 0.8407 2.0143 -2.4016 -1.2417 2.4912 1.8478 0.1407 1.6847 1.1558 2.3853 0.1067 -1.8022 0.8121 1.2180 -1.1139 -1.1755 1.0988 1.6378 -0.4198 0.2955 0.9538 1.8135 -3.7495 0.8030 -1.3068 -3.5548 1.0398 0.0018 -2.6201 0.4755 -2.1544 -2.2199 0.9579 0.5622 -1.3830 0.4154 -1.6332 0.9251 -0.7540 0.2081 -1.1529 0.6488 -0.2063 0.2780 0.5713 0.3228
1.2431 -3.4453 -0.7928 2.2576 2.2396 1.9723 1.3522 -3.0397 0.6614 0.6507 -2.3473 -1.6497 2.4820 1.9832 0.4991 1.4872 1.1017 2.6016 0.5829 -1.7673 0.9455 1.1957 -0.9844 -1.2690 1.1640 1.7539 -0.2098 0.1780 0.8734 1.8749 -3.6127 0.5952 -1.4414 -3.3676 -0.2071 -0.3922 -2.5681 1.4657 -1.9452 -2.0573 -0.2049 0.2274 -1.3528 1.4563 -1.3738 1.0956 -0.6561 0.1508 -1.0664 0.5895 -0.2310 0.3358 0.5936 0.3718
1.2678 -3.4872 -0.6522 2.4076 2.1526 1.7640 1.0085 -3.0842 0.7843 1.8902 -2.3379 -1.4175 2.5032 1.8584 0.2842 1.6207 1.0722 2.4703 0.2220 -1.7901 0.8444 1.0741 -1.0711 -1.2530 1.1247 1.6866 -0.3216 0.2477 0.9167 1.8465 -3.7267 0.7333 -1.3473 -3.5704 0.4189 -0.0498 -2.5648 1.0323 -2.1607 -2.2424 0.3751 0.5309 -1.3359 0.9972 -1.6176 0.9421 -0.7202 0.1583 -1.1459 0.6591 -0.2058 0.2776 0.5882 0.3428
1.8065 -3.5321 0.0169 2.2743 2.0116 1.7009 2.5263 -2.4046 -0.6920 0.3129 -3.2854 -0.0043 2.4501 1.8140 0.2136 1.5508 0.8286 2.3000 2.1037 -1.0643 -0.1248 -0.0090 -1.9022 0.5258 1.1237 1.5748 -0.4774 0.1880 0.6846 1.6611 -3.8384 1.1758 -1.2993 -2.7998 1.6381 -2.0160 -3.5966 0.4465 -0.0701 -1.4432 1.3989 -1.5626 -2.3386 0.2459 0.3575 0.6642 -0.8682 -0.2613 -1.1926 0.7488 -0.4044 0.2178 0.4891 0.1365
2.2307 -2.9814 -0.5617 2.5954 1.8899 0.8282 1.1761 -2.3632 -1.4489 2.5810 -2.0106 0.5410 2.5326 0.9723 -0.3695 1.7668 1.3239 1.9567 -0.0440 -1.9835 -0.6361 1.3500 -1.5811 1.3134 1.1054 0.7820 -0.8321 0.3280 1.1358 1.5274 -3.9819 1.2396 -0.8818 -2.9794 1.6131 -1.6953 -3.6856 0.5418 0.3538 -1.6065 1.3131 -1.3384 -2.4123 0.2666 0.6840 0.2328 -1.1307 0.5080 -1.3066 0.6587 -0.1956 0.1174 0.3136 0.2469
0.6134 -3.2190 -0.8772 2.3219 2.5383 1.6633 -0.2242 -2.7362 0.2834 1.0900 -2.0229 -1.6662 2.5065 2.0614 0.2409 1.6338 1.4766 2.4905 0.5626 -1.7797 1.1565 1.8544 -1.0580 -0.7839 1.1779 1.6617 -0.3692 0.3100 1.0862 1.8645 -3.5208 0.2409 -1.3818 -3.4115 0.3036 -0.0437 -2.3279 0.2855 -2.2046 -2.1025 0.4084 0.5709 -1.1176 0.3969 -1.6313 1.1891 -0.6783 0.4472 -0.9775 0.4586 -0.1757 0.4224 0.5760 0.4163
0.5806 -3.2060 -0.8829 2.3062 2.5459 1.6742 -0.2250 -2.7243 0.3007 1.0595 -2.0122 -1.6738 2.5001 2.0764 0.2507 1.6287 1.4729 2.4953 0.5893 -1.7792 1.1610 1.8478 -1.0597 -0.7998 1.1786 1.6649 -0.3655 0.3097 1.0744 1.8657 -3.5110 0.2311 -1.3853 -3.4023 0.2808 -0.0468 -2.3192 0.2960 -2.2084 -2.0941 0.3846 0.5690 -1.1096 0.4084 -1.6338 1.2025 -0.6769 0.4418 -0.9700 0.4505 -0.1776 0.4283 0.5725 0.4154
2.2906 -2.9525 -0.5055 2.6146 1.8149 0.8751 1.3309 -2.2967 -1.4693 2.5351 -2.0171 0.6534 2.5291 0.9405 -0.3532 1.7636 1.2351 1.9803 0.0347 -1.9403 -0.7687 1.2320 -1.6278 1.3241 1.0955 0.8206 -0.8214 0.3221 1.0922 1.5402 -3.9931 1.2662 -0.8895 -2.9997 1.5308 -1.7543 -3.6900 0.6696 0.3990 -1.6269 1.2253 -1.3990 -2.4172 0.3894 0.7253 0.1977 -1.1421 0.4340 -1.3195 0.6776 -0.2042 0.1003 0.3142 0.2339
1.9698 -3.4344 0.2518 1.6528 1.7790 2.0638 2.7256 -2.1264 0.2280 0.4892 -3.1527 0.3597 1.3931 2.3727 0.6999 0.5411 0.8238 2.4250 2.2323 -1.2486 -0.9037 0.0233 -2.2237 -0.7442 1.3335 1.2885 -0.3541 0.4319 -0.2918 1.4095 -3.5890 1.6825 -1.0949 -2.9877 0.8072 -1.9185 -2.9251 2.0910 0.1268 -1.6734 0.2908 -1.5898 -1.7231 1.5800 0.4422 0.7979 -1.0004 -0.9013 -1.0489 0.6236 -0.4379 0.3565 0.1389 -0.0620
2.0585 -3.4619 -0.2464 2.0020 1.8968 1.9845 2.7199 -2.2260 -0.8199 0.5531 -3.3287 -0.3325 2.2485 1.8867 0.4927 1.3901 0.5877 2.4247 2.1733 -0.9788 -0.1562 0.0994 -2.0327 0.3108 0.9842 1.5943 -0.2920 0.0708 0.3745 1.7183 -3.7999 1.3592 -1.3149 -3.1438 0.3198 -1.8603 -3.1982 2.1149 -0.2346 -1.8211 -0.0317 -1.3796 -1.9816 1.7727 0.2217 0.7298 -0.8801 -0.3364 -1.2453 0.6475 -0.3624 0.1601 0.3860 0.1826
2.1598 -3.3285 -0.7635 2.2448 2.1297 1.4426 0.9608 -2.8420 -1.5508 2.0771 -2.8617 0.6753 2.3892 1.6115 0.0305 1.5359 1.1098 2.3032 0.7572 -1.3510 -1.3649 1.8200 -1.3697 0.7444 1.0259 1.3441 -0.5672 0.1795 0.7450 1.7354 -3.9872 1.1637 -0.8337 -3.5375 -0.1025 -0.8626 -3.0905 2.2381 -0.4554 -2.1623 -0.3909 -0.5046 -1.8101 1.9700 -0.1473 0.5810 -1.0338 0.0529 -1.2990 0.5957 -0.1784 0.1554 0.3725 0.2439
2.1503 -3.3372 -0.7602 2.2306 2.1427 1.4456 0.9371 -2.8626 -1.5332 2.0937 -2.8504 0.6730 2.3994 1.6165 0.0395 1.5169 1.1223 2.3014 0.7345 -1.3695 -1.3643 1.8371 -1.3575 0.7257 1.0476 1.3355 -0.5781 0.1680 0.7554 1.7189 -3.9916 1.1604 -0.7937 -3.5761 -0.1132 -0.6857 -3.0497 2.2447 -0.5973 -2.1931 -0.3985 -0.3569 -1.7630 1.9765 -0.3168 0.5853 -1.0336 0.0520 -1.2895 0.5939 -0.2002 0.1624 0.3745 0.2304
1.7696 -3.7084 -0.8618 1.9200 2.6100 1.1109 1.3135 -2.5840 -1.7655 1.9211 -3.2572 0.5760 1.5701 2.3329 -0.3329 0.8594 2.0445 2.0271 0.2172 -1.7589 -1.1213 1.7965 -1.7539 0.7111 1.4032 0.8460 -0.5712 0.6925 0.5557 1.8003 -3.7096 1.3009 -0.6844 -3.4387 0.8627 0.5571 -2.6410 1.4157 -1.6574 -2.0823 0.4953 0.9153 -1.3821 1.0915 -1.3167 0.4952 -1.2923 0.2364 -1.0672 0.6194 0.0320 0.3626 0.1800 0.3448
1.5599 -3.8564 -0.6315 1.8792 2.6540 1.0601 1.3604 -2.7934 -1.6897 1.8545 -3.2502 0.7260 1.4765 2.3921 -0.3730 0.8905 2.0255 2.0146 0.3975 -1.7126 -1.2343 1.8295 -1.7352 0.6899 1.3755 0.9033 -0.6306 0.7435 0.5406 1.7518 -3.6993 1.3752 -0.6526 -3.3386 1.2349 0.6348 -2.7315 1.1244 -1.7025 -1.9904 0.8158 0.9672 -1.4739 0.7692 -1.3887 0.5490 -1.2791 0.1549 -1.0629 0.6052 0.0072 0.3808 0.1867 0.2965
1.9807 -3.5572 -0.4284 2.4913 2.2307 0.9476 0.8184 -3.0835 -1.2753 1.9007 -2.9541 0.9580 2.4723 1.4237 -0.3334 1.1905 2.1799 1.7197 0.6946 -1.5727 -1.2315 1.7445 -1.4490 0.8766 1.0623 1.1479 -0.8093 0.5335 0.8178 1.6376 -3.9511 1.2302 -0.6787 -3.2463 2.0656 0.1031 -3.3163 0.0438 -1.2173 -1.8544 1.7807 0.3942 -2.0295 -0.2192 -0.9335 0.5259 -1.1036 0.1452 -1.2443 0.6691 -0.0763 0.2275 0.3498 0.2017
1.9616 -3.1270 -1.1013 2.0494 2.4890 0.7283 0.6922 -2.4640 -1.5835 2.6103 -2.2614 -0.0457 1.6413 1.9708 -0.6315 0.9957 2.1593 1.7603 -0.2370 -2.1848 -0.4202 1.6415 -1.9465 1.0787 1.3808 0.4788 -0.5861 0.7431 0.6661 1.8102 -3.6620 1.3007 -0.7262 -3.3745 1.1677 0.5800 -2.6321 1.0648 -1.7186 -2.0431 0.7661 0.9923 -1.3945 0.7116 -1.3326 0.3578 -1.4044 0.6537 -1.0647 0.5538 0.0850 0.3341 0.0595 0.4573
1.6282 -3.8834 -0.2675 1.6173 2.5056 1.7534 2.5797 -2.7585 -0.6183 0.1947 -3.4588 -0.5119 1.4200 2.6035 0.2580 0.5736 1.6048 2.3716 2.1618 -1.4664 0.0553 -0.1044 -2.1332 0.1632 1.4591 1.2306 -0.3785 0.5931 0.2296 1.7367 -3.4937 1.4791 -1.1769 -3.3188 1.1931 0.1251 -2.3837 1.3473 -2.0997 -2.0200 0.7589 0.6020 -1.1805 0.9446 -1.6544 0.7992 -1.0946 -0.3300 -0.9643 0.6574 -0.2347 0.4385 0.2403 0.2066
2.2543 -3.1024 -0.8146 2.1233 2.3308 0.6196 1.1227 -2.4725 -1.5944 2.5687 -2.2555 0.3969 1.5843 1.8969 -0.7234 1.1087 2.0426 1.7010 -0.0808 -2.1982 -0.7113 1.3243 -2.0508 1.2364 1.2651 0.4171 -0.7053 0.7432 0.5720 1.7242 -3.6775 1.5543 -0.6664 -3.2470 1.6597 0.6024 -2.8375 0.9179 -1.6620 -1.9504 1.1268 0.9730 -1.6234 0.4542 -1.3211 0.2041 -1.4641 0.5143 -1.1357 0.5625 0.0552 0.2536 0.0087 0.3755
1.9632 -3.3884 -0.6381 2.4455 2.1958 1.1893 0.6635 -2.9544 -1.2840 2.1060 -2.7717 0.7375 2.4473 1.6003 -0.1992 1.7603 1.2585 2.1552 0.5011 -1.4475 -1.2270 1.8761 -1.2754 0.6819 1.0313 1.3476 -0.6674 0.3478 0.9513 1.7067 -3.9979 1.0313 -0.8035 -3.6763 0.6932 0.4571 -2.9538 1.1727 -1.7993 -2.2883 0.4769 0.8166 -1.6669 0.9877 -1.4577 0.5472 -0.9790 0.1579 -1.2939 0.6462 -0.0835 0.1878 0.4547 0.2576
1.7849 -3.4914 -0.4882 2.1858 2.0079 1.8271 2.5605 -2.4440 0.2788 0.2935 -3.2258 -0.4604 2.3622 1.8946 0.3307 1.5541 0.7477 2.3679 2.1372 -1.0328 -0.0828 -0.0558 -1.9432 0.2673 1.0406 1.6394 -0.3650 0.2011 0.5379 1.7279 -3.7875 1.1772 -1.3812 -3.5968 1.1725 -0.0500 -2.6679 0.9430 -2.2729 -2.2739 0.9340 0.4893 -1.4413 0.7238 -1.7695 0.7089 -0.8332 -0.2897 -1.2133 0.7192 -0.3212 0.2077 0.4732 0.1917
1.7824 -3.4904 0.3084 1.6866 2.0405 1.9000 2.6369 -2.2518 0.1698 0.3380 -3.0863 0.4945 1.3930 2.4657 0.4799 0.6748 1.0178 2.3612 2.1343 -1.3771 -0.9605 -0.1254 -2.1798 -0.6293 1.4068 1.2681 -0.4475 0.6506 -0.1806 1.4351 -3.5810 1.5559 -1.0042 -3.3217 1.1254 0.2426 -2.5316 1.5433 -2.0043 -1.9951 0.6496 0.5842 -1.2995 1.1135 -1.6822 0.7255 -1.0250 -0.8769 -0.9964 0.6531 -0.3246 0.4218 0.1581 -0.0462
2.3075 -2.8850 -0.6296 2.6354 1.7732 0.9530 1.3636 -2.1661 -1.5645 2.5242 -2.0389 0.6025 2.4963 0.9898 -0.3307 1.8128 1.1320 2.0451 0.0552 -1.8540 -0.8679 1.2085 -1.6893 1.2677 1.0463 0.9218 -0.7541 0.3576 1.0184 1.6399 -4.0176 1.1699 -0.8748 -3.7436 0.8430 0.3996 -2.9394 1.2737 -1.8383 -2.3754 0.5837 0.8036 -1.6707 1.0478 -1.4567 0.2006 -1.1370 0.3875 -1.3520 0.6895 -0.0737 0.0907 0.3275 0.2914
1.9135 -3.2224 0.3001 2.1910 1.6022 1.9168 2.6842 -1.9240 0.2744 0.4482 -2.9228 0.5110 2.3228 1.7833 0.4233 1.5892 0.2513 2.2217 2.1301 -0.9686 -0.7633 -0.0640 -1.9954 -0.5711 0.9750 1.6595 -0.2535 0.2331 0.1041 1.5691 -3.8607 1.2939 -1.2409 -3.6379 1.0083 0.0534 -2.7550 1.2995 -2.1788 -2.2950 0.7033 0.5072 -1.5107 1.0178 -1.7558 0.6957 -0.7654 -0.7227 -1.2499 0.6991 -0.3487 0.1901 0.3761 0.0579
1.9827 -3.1857 0.2756 2.2270 1.5415 1.9073 2.7263 -1.8757 0.1702 0.5283 -2.9074 0.5749 2.3369 1.7347 0.4131 1.5819 0.2116 2.2162 2.0859 -0.9566 -0.8511 -0.0706 -2.0138 -0.4917 0.9764 1.6508 -0.2445 0.2158 0.1095 1.5759 -3.8784 1.3069 -1.2293 -3.6758 0.8892 0.0320 -2.7540 1.4379 -2.1350 -2.3322 0.5886 0.4881 -1.5104 1.1558 -1.7103 0.6547 -0.7745 -0.7196 -1.2675 0.7106 -0.3357 0.1732 0.3766 0.0638

>  <OB_ATOM_TYPES> (2pcpB1)
C.3 C.3 C.3 C.3 C.3 C.3 C.3 C.3 C.3 C.3 C.ar C.ar C.ar C.ar C.ar N.3 C.ar C.3

>  <ENSEMBLE_RMSD> (2pcpB1)
0.000 0.452 0.696 0.709 0.770 0.776 0.800 0.936 0.956 0.977 1.057 1.154 1.156 1.159 1.175 1.178 1.200 1.200 1.203 1.238 1.256 1.271 1.277 1.300 1.355 1.377 1.378 1.418 1.421 1.437 1.440 1.454 1.456 1.498 1.501 1.523 1.574 1.577 1.578 1.586 1.629 1.670 1.675 1.748 1.769 1.850 1.904 1.921

$$$$
