
 OpenBabel03071213D

 10 10  0  0  0  0  0  0  0  0999 V2000
   18.2000   97.5810   46.6980 O   0  0  0  0  0
   16.9090   91.2920   46.0470 O   0  0  0  0  0
   16.4430   97.5730   45.4250 O   0  0  0  0  0
   16.1370   93.4100   45.3670 C   0  0  0  0  0
   18.0620   93.2920   46.8160 C   0  0  0  0  0
   16.2010   94.7940   45.4030 C   0  0  0  0  0
   18.1440   94.6520   46.8070 C   0  0  0  0  0
   17.2700   96.9110   46.0600 C   0  0  0  0  0
   17.0540   92.6510   46.0800 C   0  0  0  0  0
   17.2130   95.4410   46.1240 C   0  0  0  0  0
  1  8  1  0  0  0
  2  9  1  0  0  0
  3  8  2  0  0  0
  4  6  1  0  0  0
  4  9  2  0  0  0
  5  7  2  0  0  0
  5  9  1  0  0  0
  6 10  2  0  0  0
  7 10  1  0  0  0
  8 10  1  0  0  0
M  END
>  <MOLID> (2phhA1)
2phhA1

>  <SMILES_CANONICAL> (2phhA1)
Oc1ccc(cc1)C(=O)O	

>  <FINGERPRINT> (2phhA1)
0000000000000000000000000000000000000000000000000000100000001000001000000000000000000001000000010000000000000001000000100000000000000000000000000000000000000000000000000000000001000000000000000000001000000000000000000000000000000000000000000000000000000000000000000000000000000001000000000000000000000000000010000100000000000000000000000000000000000000010000000000000010000000000000000000000000000000100000000000001000000000000000000000000000000000000000000000000000000000000000000000000000001000000000000000100000000000000000000000000000000000000000100000000000000000000000000000000000000000000000000000000000000000000000100000000000000000000000000000000000000000000000000000100000000010000010100010000000000000000000000000000000000000000000000100000000000000000001000000000000000000000000000000000010000000000000000000000000000000000000000100001000000000000000000000000000000000000000000000000000000000000000000000000000000000000000000000001000000000000000001100000000000000000000000000000000000000000000000000000000000000

>  <MACCS166> (2phhA1)
000000000000000000000000000000000000000000000000010000000000000000000000000100000000000000000000001000000000000010000000001000100010000100110010010000010100101000111000

>  <OB_MW> (2phhA1)
138.032

>  <OB_logP> (2phhA1)
1.0904

>  <OB_PSA> (2phhA1)
57.53

>  <OB_MR> (2phhA1)
35.4243

>  <OB_ATOMIC_CHARGES> (2phhA1)
-0.2405521834 -0.2865701981 -0.2405521834 0.0422388905 0.0422388905 0.0098577054 0.0098577054 0.3877547577 0.1957505625 0.0799760529

>  <MCT_HBD> (2phhA1)
2

>  <MCT_HBA> (2phhA1)
3

>  <ENSEMBLE_TOTAL> (2phhA1)
3

>  <ENSEMBLE_COORDS> (2phhA1)
1.0367 2.8213 0.6153 -0.2543 -3.4677 -0.0357 -0.7203 2.8133 -0.6577 -1.0263 -1.3497 -0.7157 0.8987 -1.4677 0.7333 -0.9623 0.0343 -0.6797 0.9807 -0.1077 0.7243 0.1067 2.1513 -0.0227 -0.1093 -2.1087 -0.0027 0.0497 0.6813 0.0413
-0.4944 2.7411 -0.9958 -0.1918 -3.4583 -0.0090 0.7672 2.7907 0.8966 -0.9333 -1.3570 -0.8549 0.7817 -1.4593 0.8651 -0.8408 0.0916 -0.8105 0.8758 -0.1170 0.8912 0.1492 2.1662 0.0473 -0.1514 -2.0906 -0.0459 0.0377 0.6926 0.0158
-0.8726 2.7722 -0.5823 -0.1981 -3.4584 -0.0052 1.1237 2.7630 0.5076 -1.0939 -1.3478 -0.6575 0.9377 -1.4689 0.6718 -0.9794 0.0999 -0.6371 1.0336 -0.1269 0.6976 0.1771 2.1644 0.0185 -0.1664 -2.0902 -0.0310 0.0383 0.6927 0.0175

>  <OB_ATOM_TYPES> (2phhA1)
O.co2 O.3 O.co2 C.ar C.ar C.ar C.ar C.2 C.ar C.ar

>  <ENSEMBLE_RMSD> (2phhA1)
0.000 0.986 0.994

$$$$
