
 OpenBabel03071213D

 20 20  0  0  0  0  0  0  0  0999 V2000
   29.7830   16.4030   62.5100 C   0  0  0  0  0
   28.8390   20.7540   61.8970 C   0  0  0  0  0
   27.3420   13.8830   60.6120 C   0  0  0  0  0
   23.7310   15.4020   62.9880 N   0  0  0  0  0
   22.5970   19.7690   65.2250 O   0  0  0  0  0
   27.0010   14.1910   62.9800 O   0  0  0  0  0
   24.2480   21.0890   64.8130 O   0  0  0  0  0
   29.8720   17.7770   62.0550 C   0  0  0  0  0
   28.4510   19.7140   60.9080 C   0  0  0  0  0
   23.6460   17.6310   63.7290 C   0  0  0  0  0
   26.2670   15.8000   61.5950 N   0  0  0  0  0
   27.7110   18.2280   62.5760 O   0  0  0  0  0
   25.6760   19.0980   63.5400 C   0  0  0  0  0
   24.2400   16.6560   62.6670 C   0  0  0  0  0
   28.5450   18.2910   61.4810 C   0  0  0  0  0
   25.7480   16.6120   62.6960 C   0  0  0  0  0
   26.2750   18.0900   62.6230 C   0  0  0  0  0
   26.8460   14.6280   61.8300 C   0  0  0  0  0
   23.7220   19.9580   64.7480 C   0  0  0  0  0
   24.3810   18.9200   64.0590 C   0  0  0  0  0
  1  8  1  0  0  0
  2  9  1  0  0  0
  3 18  1  0  0  0
  4 14  1  0  0  0
  5 19  1  0  0  0
  6 18  2  0  0  0
  7 19  2  0  0  0
  8 15  1  0  0  0
  9 15  1  0  0  0
 10 14  1  0  0  0
 10 20  1  0  0  0
 11 16  1  0  0  0
 11 18  1  0  0  0
 12 15  1  0  0  0
 12 17  1  0  0  0
 13 17  1  0  0  0
 13 20  2  0  0  0
 14 16  1  0  0  0
 16 17  1  0  0  0
 19 20  1  0  0  0
M  END
>  <MOLID> (2qwkA1)
2qwkA1

>  <SMILES_CANONICAL> (2qwkA1)
CCC(O[C@@H]1C=C(C[C@@H]([C@H]1NC(=O)C)N)C(=O)O)CC	

>  <FINGERPRINT> (2qwkA1)
0000000000000111000000000100000000001001000000000111000000100000000000000001000000000000000000001000000000000001000001010000000000000000000110000000000010000000000000000000000000001000000000000000001000001000000000011000000000111000000000000000010000000010000100010000000001000000000000000000000000010000000000001000100001000000001000000000000000000000010000010000000110010000000000010000010000000010100000000001101000000001100010000000000000000100000000000000000000010100000010000000000000001000000100000000100000010000101000000100000000000000000000000000000000000000011000000110001011000001001000000001000000000000000000000000001000000001000000000000000000000000001000000011000000000100000011101000000000010011000000001000000000000000000000100001000000000000000110000001000000000000000101000000000000000000000000000001010000000000000000001100000001000000000000001001000000000000000000000000000100001100000000000000001000000000000000000000010000000100000000010000010000000010000000000000000000000000000000000000001000010000

>  <MACCS166> (2qwkA1)
000000000000000000000000000000000000000000000000010001000000000000000000000100100001000001010010101000010001011001011000001001100011100100111110010011110111111110111000

>  <OB_MW> (2qwkA1)
284.174

>  <OB_logP> (2qwkA1)
1.8981

>  <OB_PSA> (2qwkA1)
101.65

>  <OB_MR> (2qwkA1)
75.3899

>  <OB_ATOMIC_CHARGES> (2qwkA1)
0.0025726252 0.0025726252 0.0964250197 -0.1306406899 -0.2409179108 -0.2733283233 -0.2409179108 0.0295657372 0.0295657372 0.0536608631 -0.2028136373 -0.3525358826 0.0069328643 0.1189757668 0.1156309069 0.1442755362 0.1582287668 0.2419460783 0.3836543522 0.0571474757

>  <MCT_HBD> (2qwkA1)
3

>  <MCT_HBA> (2qwkA1)
6

>  <ENSEMBLE_TOTAL> (2qwkA1)
50

>  <ENSEMBLE_COORDS> (2qwkA1)
4.0326 -0.7648 -1.7662 2.2314 2.4649 -2.2214 1.3537 -3.4185 -2.0251 -2.8250 -0.9815 -1.0240 -3.8178 2.2287 2.1530 1.4338 -3.2075 0.3548 -1.8166 3.2940 2.3734 3.4433 -0.2701 -0.4682 2.4833 1.9740 -0.8171 -2.6863 -0.1082 1.2325 -0.1676 -2.0405 -0.8633 1.3038 0.2865 0.3779 -0.7785 1.3621 0.6212 -2.1471 -1.1386 0.2531 2.1684 0.4973 -0.7322 -0.6245 -1.1145 0.1534 -0.0433 0.2759 -0.0902 0.9008 -2.8896 -0.7014 -2.4832 2.3543 1.9685 -1.9612 1.1959 1.2214
3.4067 -0.6659 -2.2237 2.3746 3.3529 -1.5652 1.1341 -3.9956 -1.7342 -2.6196 -1.2654 -0.7298 -3.8047 2.1454 1.7206 0.1312 -3.9712 0.4343 -1.8805 3.2484 2.2628 3.4493 0.0867 -0.9177 2.7241 2.3912 -0.4570 -2.2850 -0.2505 1.4499 0.1933 -2.0234 -0.8374 1.4466 0.5281 0.2606 -0.7396 1.3891 0.3983 -1.7755 -1.2810 0.4541 2.2507 1.0002 -0.8126 -0.2903 -1.0924 0.1599 0.1155 0.3309 -0.2144 0.4403 -3.3515 -0.5767 -2.4618 2.2925 1.7725 -1.8095 1.1315 1.1558
4.0958 -0.8654 -1.5281 2.2669 2.2888 -2.3037 1.4476 -3.2521 -2.0981 -2.8356 -1.0348 -1.0776 -1.6559 3.0088 2.6602 1.2810 -3.2979 0.2866 -3.7850 2.5833 1.9658 3.4686 -0.2598 -0.2965 2.4644 1.9248 -0.8530 -2.7328 -0.0831 1.1529 -0.1567 -1.9550 -0.9477 1.2877 0.3036 0.4328 -0.7933 1.3858 0.6428 -2.1536 -1.1205 0.2025 2.1859 0.4515 -0.6598 -0.6321 -1.0802 0.1060 -0.0459 0.3148 -0.0736 0.8709 -2.8508 -0.7778 -2.5903 2.3311 1.9520 -1.9876 1.2069 1.2142
4.6744 -0.5644 -0.1001 2.8720 0.9937 -2.7292 0.1219 -2.7940 -3.1290 -1.8917 -2.4326 1.0525 -3.5324 2.0613 2.7281 0.3765 -3.5577 -0.8798 -3.1652 3.1659 0.7658 3.7686 0.5298 0.4074 2.4797 1.5946 -1.4000 -2.1224 -0.1522 1.7059 -0.2044 -1.3432 -1.2961 1.4322 0.7775 0.6166 -0.7884 1.6100 0.6234 -1.7235 -1.0707 0.5720 2.4536 0.5123 -0.3400 -0.2946 -0.8563 0.0736 0.1459 0.6088 0.0382 0.1232 -2.6326 -1.6420 -2.8856 2.2827 1.5609 -1.8397 1.2669 1.3720
4.7158 0.0060 -0.4935 2.7551 2.3957 -1.9323 0.9273 -4.0890 -1.6291 -2.1557 -2.4535 1.3111 -3.2772 2.1380 2.6073 0.0044 -2.2551 -2.8511 -2.4062 3.5548 1.0518 3.4712 0.0052 0.3609 2.3538 2.0139 -0.5276 -1.9721 -0.0791 1.7301 -0.0513 -2.2455 -0.5232 1.1227 0.1613 0.3766 -0.8627 1.4005 0.1119 -1.9785 -1.1644 0.6759 2.2648 0.5037 -0.4094 -0.8563 -1.0664 -0.3524 -0.0665 0.2432 -0.4075 0.2385 -2.7689 -1.7634 -2.4842 2.4450 1.5546 -1.7430 1.2547 1.1093
3.7615 -0.7470 -0.3584 3.4108 1.1557 -3.2888 1.1790 -3.7301 0.5693 -2.5227 -1.3865 -1.4350 -3.8490 1.3095 2.5837 0.4756 -3.0782 -1.6201 -2.0027 2.4027 3.3409 3.0922 0.5818 -0.0951 2.7184 1.8776 -2.1597 -2.6101 0.0249 0.5533 -0.1248 -1.7862 0.2125 0.9150 1.4787 -0.6880 -0.6018 1.3543 1.1605 -1.8706 -0.3033 -0.7280 2.1032 0.8817 -1.2047 -0.3898 -0.5583 -0.5013 0.2807 0.5974 0.2230 0.4882 -2.8453 -0.4167 -2.5506 1.6869 2.5173 -1.9026 1.0839 1.3356
4.1154 0.6514 -2.3548 2.4723 3.4299 -0.5587 1.0077 -4.4272 -0.1416 -2.6604 -2.3560 0.3727 -1.6970 3.4803 1.5059 -0.3859 -3.5719 -1.8828 -3.4910 2.2432 2.1653 3.4462 0.1070 -1.1167 2.7393 2.1152 0.1324 -2.1910 -0.1885 1.3466 0.1569 -2.2176 -0.0667 1.3900 0.1647 0.0522 -0.6478 1.3675 0.2217 -2.0601 -1.0625 0.1193 2.2645 0.9678 -0.7341 -0.6513 -1.0925 -0.4600 0.0720 0.2587 -0.4756 0.1870 -3.3757 -0.8166 -2.3955 2.3280 1.6309 -1.6715 1.1782 1.0606
1.4915 1.6879 -3.1290 3.9110 1.7240 0.6181 1.6130 -3.6078 -1.6420 -2.8713 -1.2442 -0.7130 -3.7605 2.2708 1.6140 1.6430 -3.0930 0.6917 -1.7933 3.3645 1.9742 1.8621 0.4882 -2.2906 3.5504 0.8215 -0.5366 -2.4751 -0.2070 1.4515 -0.1266 -2.3604 -0.6232 1.3747 0.0814 0.0468 -0.6961 1.2191 0.4498 -2.0612 -1.3153 0.4921 2.0751 0.9289 -0.8578 -0.5643 -1.2812 0.2293 -0.0254 0.0685 -0.2280 1.0649 -3.0100 -0.3862 -2.4102 2.3631 1.6452 -1.8018 1.1011 1.1938
4.3719 -0.4433 -0.0426 2.5089 -0.2182 -3.1535 0.8597 -3.5218 0.5158 -2.5308 -1.4861 -1.3411 -3.8528 1.6125 2.4737 0.5890 -2.7559 -1.7306 -1.8744 2.0147 3.5369 3.6520 0.8534 -0.3141 2.1892 0.9808 -2.2910 -2.5493 -0.0869 0.6556 0.1225 -1.3244 0.0452 1.3727 1.3584 -0.0424 -0.7778 1.6472 0.9062 -1.9791 -0.2915 -0.7374 2.2580 0.5806 -0.8341 -0.4523 -0.2530 -0.7426 -0.0076 1.1374 -0.2719 0.5191 -2.5118 -0.5312 -2.5033 1.6238 2.5668 -1.9155 1.0839 1.3324
4.2744 0.3747 -1.9113 2.2185 3.5083 -0.4548 -1.0505 -3.7696 -2.6122 -0.7932 -1.3712 2.3818 -1.8570 3.1507 1.4638 -0.1685 -4.1577 -0.4259 -3.8536 2.1864 0.9355 3.7368 0.2350 -0.5078 2.8007 2.3588 0.3303 -2.3579 -0.3575 0.8289 -0.4144 -1.9784 -1.2073 1.5719 0.3338 0.4777 -0.6027 1.2075 0.0444 -1.2792 -1.4081 1.0137 2.4754 1.0519 -0.3562 -0.1250 -1.2937 0.0296 0.3712 0.1171 -0.2531 -0.4902 -3.3512 -1.2910 -2.6332 2.1595 0.9667 -1.8236 1.0039 0.5473
2.1121 0.9390 -2.9152 4.0409 2.4965 0.0811 0.6978 -3.4498 -2.4862 -2.2409 -2.4405 1.5370 -2.1431 3.5375 0.7946 1.6472 -3.0891 -0.3231 -3.8897 2.3129 1.5904 2.4911 0.1154 -1.7086 3.5113 1.1014 0.2980 -2.2672 -0.0564 1.6786 -0.4228 -2.1682 -0.8461 1.3486 0.1744 0.4111 -0.7683 1.2899 0.2644 -1.9744 -1.2330 0.7691 2.2117 0.9085 -0.4504 -0.5342 -1.2583 0.2773 0.0334 0.0978 -0.1309 0.7175 -2.8960 -1.0977 -2.7393 2.3872 1.1852 -1.8318 1.2308 1.0716
4.9502 0.1062 -1.1196 1.9983 1.2769 -2.9847 0.0510 -3.9634 0.7331 -2.4354 -1.0989 -1.8185 -2.0508 1.4576 3.5039 0.1533 -3.2271 -1.5371 -3.6237 2.3233 2.0916 3.9448 0.6357 -0.1260 2.3034 1.7547 -1.5846 -2.5722 0.1468 0.2847 -0.2055 -1.6829 0.1664 1.6463 0.5308 0.4228 -0.5204 1.3093 1.1100 -1.7663 -0.1364 -0.9718 2.5424 0.5548 -0.6874 -0.3172 -0.4970 -0.6624 0.3074 0.7271 0.0084 0.0133 -2.9380 -0.3545 -2.5949 1.6966 2.2892 -1.8239 1.0240 1.2366
4.2057 0.5888 -2.5710 2.4109 3.4002 -1.3764 -0.1108 -4.1169 1.3670 -2.5244 -1.6500 -1.5967 -1.8041 1.7756 3.1683 -0.2844 -3.8350 -0.9981 -3.3774 2.4975 1.6775 3.7685 0.2979 -1.1547 2.6983 2.3654 -0.3150 -2.5223 -0.0194 0.2305 -0.2166 -1.9633 0.3849 1.7231 0.2135 0.0730 -0.3852 1.1471 0.7888 -1.7755 -0.5871 -0.9651 2.4520 0.9829 -0.8783 -0.3260 -0.9461 -0.6482 0.3544 0.3606 -0.2448 -0.2096 -3.3135 0.1088 -2.3824 1.8442 1.9477 -1.6941 0.9578 1.0017
3.4653 0.9726 1.0922 3.0588 -0.8989 -2.7502 1.6208 -3.3970 -0.1772 -2.7016 -1.5801 -1.0295 -3.5882 1.2783 2.8955 0.0938 -3.0230 -1.9789 -1.9509 2.8512 3.0645 3.4126 1.2875 -0.3838 2.4059 0.4371 -2.4910 -2.4357 -0.1463 0.9172 0.0610 -1.6278 -0.1255 1.0565 1.4712 -0.8251 -0.6138 1.5365 0.9721 -2.0314 -0.3993 -0.5212 2.2007 0.6407 -1.0095 -0.5182 -0.4331 -0.7078 0.1491 0.7505 -0.0291 0.5239 -2.6721 -0.8868 -2.4155 1.8525 2.5384 -1.7931 1.0995 1.4357
4.5031 0.3466 -1.6123 2.4347 3.5123 -0.6836 -1.7947 -3.4553 -2.5507 -0.0753 -1.3891 2.4331 -3.7145 1.7082 1.5292 -0.4416 -4.1115 -0.6941 -2.4964 3.1519 0.2599 3.8278 0.2932 -0.2642 2.7489 2.4317 0.3207 -1.9987 -0.3808 1.3287 -0.7440 -1.8527 -1.1676 1.5797 0.3790 0.4857 -0.6007 1.1437 -0.0548 -0.8946 -1.4206 1.2354 2.5349 1.0729 -0.3068 -0.0452 -1.3113 -0.0227 0.4391 0.1039 -0.3190 -0.9163 -3.2040 -1.3672 -2.6449 2.0551 0.7765 -1.7012 0.9269 0.6738
2.1475 0.8542 -3.0533 4.1075 2.7308 -0.3584 1.2548 -4.3016 -0.2895 -1.8008 -1.7362 1.7001 -1.9767 2.9930 2.2678 -0.0036 -3.2628 -2.0379 -4.0088 2.1618 1.6653 2.6105 0.1877 -1.7800 3.5552 1.4165 0.1367 -2.7423 -0.0225 0.2880 0.4330 -2.0986 -0.0769 1.4414 0.3604 0.3131 -0.7201 1.3761 0.5416 -1.8635 -1.2585 0.3272 2.2784 1.0716 -0.5957 -0.4939 -1.0203 -0.2930 0.1112 0.3741 -0.1781 0.4884 -3.1835 -0.9186 -2.7897 2.1565 1.5827 -2.0284 1.2014 0.7593
2.2471 0.7061 -3.4078 3.3444 3.0527 -0.0280 0.5028 -3.8303 1.5426 -3.0055 -1.9869 -1.0458 -3.4585 1.9197 2.0985 1.5935 -2.9216 -0.3772 -1.3332 2.5022 2.6676 3.0268 0.5924 -2.1206 3.0847 1.5770 0.1468 -2.7203 0.0295 0.2681 -0.4326 -2.0253 0.3446 1.4601 -0.0351 -0.4396 -0.4724 1.0834 0.4270 -2.1827 -0.8011 -0.8887 2.1874 1.0716 -0.9595 -0.6935 -1.1251 -0.7661 0.0756 0.1947 -0.6410 0.6327 -2.8962 0.3833 -2.1136 1.8861 1.9590 -1.7427 1.0063 0.8368
4.6950 0.5012 0.6809 3.3088 -0.2768 -2.4043 -0.9080 -3.0078 -3.0252 -0.8306 -2.3393 1.5714 -3.3498 2.9938 0.8435 0.3371 -3.5289 -1.0554 -3.3967 1.9289 2.8564 3.5608 1.4283 0.3252 2.4784 0.8328 -1.8016 -1.6631 -0.1201 1.8209 -0.3569 -1.3407 -1.4471 1.2289 1.2455 0.2433 -1.0909 1.6053 0.1772 -1.2525 -1.1715 0.8161 2.4110 0.6639 -0.2969 -0.1382 -0.7502 -0.1363 0.0267 0.7580 -0.3385 -0.2352 -2.6815 -1.7302 -2.9339 2.0649 1.7337 -1.8907 1.1944 1.1669
4.0105 0.1389 1.5739 3.1349 0.4773 -2.7477 -0.8586 -2.8784 -3.2709 -0.4172 -1.6547 2.0527 -2.2548 3.0092 2.2374 0.2970 -3.4946 -1.2731 -4.1233 1.8703 1.5943 3.7430 1.0314 0.3875 2.4637 1.3136 -1.6852 -2.2786 -0.4070 1.1226 -0.4697 -1.3118 -1.5409 1.3805 0.9206 0.4460 -0.8900 1.5132 0.3788 -1.1199 -1.3389 0.8233 2.5054 0.5821 -0.3590 -0.1371 -0.8433 -0.2191 0.1584 0.6477 -0.2254 -0.2673 -2.6210 -1.9224 -2.9094 2.0015 1.6141 -1.9676 1.0441 1.0129
3.5171 1.0073 1.3192 4.0667 0.1286 -2.3565 1.1781 -3.7668 -1.9557 -1.1850 -1.9449 1.6205 -1.9702 3.1274 2.3782 -1.1137 -3.1302 -2.1570 -3.8209 1.8095 2.4778 2.8789 1.7988 0.2036 2.9122 1.0805 -2.1565 -2.6249 -0.1728 0.8148 0.3470 -1.8279 -0.8923 0.8825 1.1089 -0.9248 -0.6686 1.3555 0.8564 -1.6743 -1.2890 0.4177 2.2767 0.8462 -0.8059 -0.5661 -0.7740 -0.4975 0.2004 0.4000 0.1049 -0.0033 -2.8871 -1.6990 -2.6894 2.0243 2.0686 -1.9433 1.1058 1.1836
4.8267 -0.1486 0.3364 3.0709 0.3977 -2.4661 -0.5460 -2.3495 -3.4398 -0.9023 -1.6760 2.4317 -2.1812 3.2412 1.8150 1.2820 -2.3024 -1.9036 -4.1358 2.2023 1.2673 3.5994 0.6173 0.7645 2.3804 1.1050 -1.3233 -2.5419 -0.3030 1.2916 -0.8388 -1.6605 -1.1936 1.2545 0.4486 0.7301 -0.9038 1.3221 0.3586 -1.5088 -1.4061 1.1415 2.4062 0.2314 -0.0819 -0.4376 -1.1583 0.0966 0.0677 0.2676 -0.0241 0.0891 -2.1093 -2.1083 -2.9169 2.2101 1.3378 -2.0638 1.0703 0.9698
2.4746 2.2916 -2.8608 4.0426 2.5876 0.2757 1.2498 -4.3933 -0.2093 -2.4123 -2.4643 0.8069 -2.5374 3.2453 0.6591 -0.6116 -3.7900 -1.5777 -3.0680 2.2403 2.6329 2.4218 0.9718 -2.1280 3.5175 1.1892 0.0671 -1.9494 -0.2233 1.5640 0.2835 -2.2354 -0.0905 1.4121 0.1619 -0.0991 -0.6601 1.3449 0.1785 -1.9326 -1.1653 0.3849 2.1873 1.2195 -0.6533 -0.6208 -1.1523 -0.3945 0.0524 0.2250 -0.5155 0.2051 -3.4572 -0.7259 -2.4534 2.2551 1.5770 -1.6011 1.1490 1.1086
4.0634 2.5850 -2.0588 3.6432 0.5815 0.8093 1.0175 -4.0883 0.7086 -2.7803 -1.9816 -0.7436 -3.3869 1.6505 2.6101 -0.3705 -3.8033 -1.2110 -1.9040 3.2914 2.0700 2.8789 1.6933 -2.3525 2.9644 0.1184 -0.4580 -2.4482 -0.1722 0.8393 0.0056 -2.0084 0.2243 0.8572 0.8997 -1.3863 -0.5261 1.3608 0.5502 -2.0226 -0.7759 -0.4815 2.1971 1.2768 -1.0672 -0.5111 -0.9385 -0.6059 0.2267 0.3474 -0.2442 0.1498 -3.3032 -0.2204 -2.3185 2.1496 1.9462 -1.7356 1.1173 1.0713
3.6769 -0.4565 1.4000 2.6456 0.3164 -2.9076 1.0179 -3.2562 -2.6268 0.0840 -1.4253 2.1272 -2.9621 3.2087 0.9955 -0.8961 -1.8573 -2.9191 -3.3386 2.0141 2.8963 3.4828 0.6309 0.3722 2.3484 1.2058 -1.7249 -2.0268 -0.2826 1.7617 0.1915 -1.9196 -0.8602 1.1273 0.7487 0.3053 -1.0900 1.4508 0.2247 -1.0288 -1.2875 1.2034 2.2546 0.3643 -0.4706 -0.6046 -0.9192 -0.2054 -0.0989 0.5072 -0.3764 -0.0123 -2.2704 -2.1770 -2.8116 2.1308 1.8002 -1.9593 1.0969 1.1814
4.0126 2.6056 -1.7868 3.3869 1.4766 1.6264 -1.1754 -3.6755 -2.4259 -1.3488 -2.3440 1.9713 -3.3653 2.2943 2.0143 0.2755 -3.9924 -0.5537 -2.8644 3.0914 -0.0616 3.3234 1.2627 -1.8005 3.1587 0.4676 0.5268 -1.9385 -0.0301 1.6624 -0.4036 -1.8446 -1.1359 1.3025 0.3204 -1.0137 -0.6506 1.2925 0.0337 -1.4970 -1.3034 0.9696 2.4031 1.1291 -0.6076 -0.2172 -1.2043 0.1476 0.3647 0.2026 0.0409 -0.3495 -3.2163 -1.2674 -2.6886 2.2899 0.8424 -1.7285 1.1780 0.8179
2.2491 1.9249 -2.5565 3.8571 2.7295 0.5840 -0.5075 -4.0949 -2.2914 -1.7543 -2.3046 2.1773 -2.3791 3.0932 -0.2047 1.3738 -3.1787 -1.1346 -3.5072 2.3871 1.6418 2.6026 0.7511 -1.6743 3.4617 1.2736 0.5826 -1.7999 0.0801 1.8759 -0.7486 -2.2979 -0.7824 1.4973 -0.0187 0.3266 -0.6318 1.0958 -0.0196 -1.6881 -1.2559 1.1745 2.2151 1.0685 -0.2475 -0.4318 -1.4259 0.3301 0.1843 -0.1373 -0.2125 0.1659 -3.1593 -1.3396 -2.5815 2.2728 0.8524 -1.5771 1.1965 0.9178
2.6106 2.0325 -2.7953 3.9719 2.6721 0.3792 0.8299 -4.4697 -1.1525 -0.2364 -1.6478 2.0713 -2.7584 3.1234 0.3287 -1.4567 -3.7816 -1.2547 -3.2648 2.2841 2.3854 2.5330 0.7950 -1.9321 3.4664 1.2528 0.3017 -2.1546 -0.2791 1.4571 0.2098 -2.2118 -0.8406 1.3535 0.2205 0.0997 -0.7827 1.3054 0.1021 -1.2161 -1.3980 1.0287 2.1930 1.1954 -0.5116 -0.6080 -1.1346 -0.3421 0.0605 0.2263 -0.4937 -0.2820 -3.4721 -1.0931 -2.6660 2.2093 1.3236 -1.8028 1.0781 0.9382
3.3352 2.5401 0.7763 4.4292 0.7224 -1.8950 0.6801 -4.3622 0.2063 -2.8453 -1.8832 -0.9485 -1.7331 3.0016 2.2311 -0.4016 -3.6715 -1.8080 -2.9200 1.3388 3.2400 2.4070 2.6068 -0.4141 2.9878 1.0212 -2.2359 -2.4233 -0.3181 0.8678 -0.0384 -2.1362 -0.0906 0.8069 1.0359 -1.2577 -0.4043 1.1107 0.8076 -2.0425 -0.7492 -0.5351 2.1910 1.2149 -0.9682 -0.5389 -0.9375 -0.7365 0.2636 0.2508 -0.2100 0.0231 -3.3699 -0.6987 -2.1549 1.7228 2.3688 -1.6215 0.8618 1.3003
1.8779 1.9723 -2.4130 4.5800 1.7044 0.1796 0.2290 -3.3842 -2.7600 -1.4715 -1.6215 2.5078 -2.0316 3.3751 1.2415 1.6578 -2.8936 -0.9097 -4.0239 2.2843 1.0927 2.0999 0.6406 -1.7355 3.7024 0.4789 0.1217 -2.6861 -0.2535 0.9157 -0.5496 -2.1520 -0.8976 1.4177 0.0698 0.5524 -0.7224 1.1721 0.4427 -1.7593 -1.4408 1.0952 2.2881 0.8644 -0.2482 -0.4646 -1.3705 0.3107 0.1023 0.0090 0.0238 0.5491 -2.7965 -1.4236 -2.8023 2.2774 1.0620 -1.9929 1.0643 0.8419
1.8987 2.8438 -2.1977 4.5722 1.9948 0.0660 1.1810 -4.4616 -0.6094 -1.6870 -1.8888 1.6590 -1.7078 2.9556 2.2984 -0.6534 -3.6612 -1.9164 -3.7808 2.3376 1.5898 2.0454 1.3641 -1.9298 3.7475 0.7717 -0.2523 -2.6763 -0.0656 0.4284 0.3514 -2.2692 -0.3441 1.5078 0.0981 0.0927 -0.5790 1.2334 0.5382 -1.8567 -1.3397 0.3225 2.2972 1.1525 -0.4501 -0.5451 -1.1405 -0.4289 0.1437 0.2134 -0.2723 0.1805 -3.4394 -1.0466 -2.5682 2.1869 1.5923 -1.8712 1.1141 0.8604
2.7281 2.1949 -2.7146 3.6382 2.7626 0.7115 0.7216 -4.5604 -1.1618 -0.1669 -1.6394 2.0193 -2.6129 3.1716 0.3145 -1.5625 -3.8600 -1.1069 -3.1514 2.3140 2.3546 2.6074 0.9033 -1.9401 3.3846 1.3171 0.3627 -2.0935 -0.2649 1.4456 0.1392 -2.2849 -0.9067 1.3717 0.1405 -0.0133 -0.7471 1.2664 0.0084 -1.1853 -1.4063 1.0102 2.1661 1.2057 -0.5246 -0.6269 -1.1796 -0.3884 0.0679 0.1630 -0.5847 -0.3772 -3.5521 -1.0584 -2.5594 2.2332 1.2894 -1.7417 1.0752 0.8832
3.1966 0.8160 1.6924 4.5789 0.6708 -2.1179 -2.0640 -2.6753 -2.5585 0.1396 -1.6865 2.2727 -3.9146 1.1094 1.9803 -0.0355 -3.5277 -1.6218 -2.9180 2.9354 1.0534 2.9118 1.7289 0.5224 3.3055 1.4481 -1.8914 -1.8988 -0.6223 1.4883 -0.5955 -1.2917 -1.3214 1.1689 0.9851 -0.9872 -0.7381 1.3100 0.4256 -0.7240 -1.5175 1.1158 2.5620 0.8975 -0.6965 0.0852 -1.0198 -0.0742 0.4315 0.4522 0.0941 -0.7858 -2.5728 -1.7886 -2.9046 1.7495 1.3449 -1.8008 0.8105 1.0675
4.0726 2.6122 -1.7916 3.2713 1.2057 1.5523 -1.3921 -3.7473 -2.1395 -1.0840 -2.2747 2.0992 -3.0352 2.8115 -0.1661 0.4023 -3.9578 -0.5750 -3.1780 2.5897 2.1007 3.2090 1.3846 -1.9704 3.1648 0.3862 0.2882 -1.8522 -0.0227 1.7310 -0.4226 -1.8484 -1.1097 1.2163 0.3974 -1.1352 -0.7075 1.3126 0.0068 -1.3785 -1.2997 1.0637 2.3587 1.1530 -0.7412 -0.1748 -1.1653 0.1400 0.3413 0.2580 -0.0320 -0.3659 -3.2250 -1.1877 -2.7032 2.2629 1.0239 -1.7424 1.1670 0.8426
2.9545 1.1307 1.6528 3.4500 -0.6841 -1.7454 0.7993 -3.7998 -2.2979 0.7529 -1.3205 1.4938 -3.5691 1.4544 2.4469 -1.4699 -3.2917 -1.7575 -2.2765 3.2873 2.0117 2.1418 1.7928 0.5624 3.0626 0.7504 -1.4828 -1.3901 -0.2237 1.7561 0.1812 -1.6817 -1.4434 0.7573 1.2377 -1.3271 -1.2338 1.5429 -0.0089 -0.5593 -1.1660 0.8968 1.8696 0.8055 -0.5545 -0.5492 -0.8042 -0.5779 -0.4693 0.6651 -0.9289 -0.3037 -2.9188 -1.8081 -2.4948 2.0909 1.9208 -1.6536 1.1327 1.1910
2.5634 3.4473 0.2534 4.8106 0.6557 0.0057 -1.2575 -3.4595 -2.7376 -1.3830 -2.6297 1.6743 -3.3098 1.9786 2.3217 0.1221 -4.0531 -0.8809 -2.7303 3.0619 0.4044 2.3670 2.5328 -0.9319 3.6912 0.4402 -0.9842 -1.8239 -0.2694 1.7398 -0.3531 -1.8102 -1.2916 1.3068 0.3950 -0.9969 -0.5813 1.2179 0.2374 -1.4625 -1.4400 0.8460 2.4304 1.0933 -0.4718 -0.1717 -1.2852 0.0453 0.4204 0.1254 0.0742 -0.4155 -3.1676 -1.5366 -2.5927 2.1344 1.1860 -1.6305 1.0321 1.0432
1.9184 2.0534 -3.0092 4.4429 2.2073 -0.5433 -0.0462 -4.2027 0.9786 -2.6663 -1.4711 -1.7580 -1.7406 1.7453 3.1876 1.6644 -2.7241 0.2234 -3.6977 1.9465 2.0404 2.0181 0.7400 -2.2722 3.7964 0.8444 -0.5716 -2.6384 0.2844 -0.0702 -0.5569 -2.0279 0.1914 1.6200 0.0935 0.0293 -0.4675 0.9382 0.9676 -1.8570 -0.4239 -1.1685 2.3155 1.0094 -0.8105 -0.4784 -0.9211 -0.7460 0.2398 0.2860 -0.1647 0.4689 -2.9193 0.4098 -2.5272 1.6010 2.0958 -1.8082 0.9409 0.9904
2.5197 1.1300 -2.8320 3.5148 2.4498 1.3318 -1.0877 -3.6586 -2.3352 -0.2077 -0.9150 2.8802 -3.8795 1.8839 1.2964 1.0629 -2.8946 -1.6319 -2.7750 2.8596 -0.4380 2.6833 0.2486 -1.6169 3.6647 1.2998 0.3673 -2.1348 -0.1788 1.5924 -0.8460 -2.1653 -0.5178 1.5244 0.3089 0.5104 -0.6995 1.0645 -0.0164 -1.0307 -1.2158 1.7218 2.3675 1.0466 -0.3685 -0.1776 -1.3572 0.4731 0.2996 -0.0385 -0.1188 -0.1518 -2.8799 -1.4683 -2.8352 2.0190 0.4460 -1.8112 0.9931 0.7243
3.2258 3.2113 -0.5317 3.6850 -1.1879 -0.8010 1.0963 -3.9604 0.2857 -2.7180 -1.6630 -1.0879 -1.8332 3.0547 2.5552 0.0848 -3.3186 -1.7816 -3.5233 1.5557 2.8199 3.1234 2.0526 -1.4935 2.6878 -0.3678 -1.5835 -2.4894 -0.1262 0.7806 -0.0522 -1.9112 0.0654 0.9644 1.1934 -1.0127 -0.5167 1.3688 0.8929 -1.9826 -0.5185 -0.5896 2.3580 0.9180 -0.8544 -0.4719 -0.7070 -0.6170 0.2701 0.4765 -0.0089 0.3305 -3.0451 -0.6133 -2.4721 1.8926 2.2940 -1.7666 1.0821 1.2814
4.2208 2.1944 -1.1832 3.7420 -0.2598 1.1408 -0.7396 -3.5075 -2.4952 -1.1316 -2.0814 2.3643 -3.1862 2.9442 -0.0115 1.2717 -2.5592 -1.6361 -3.7482 2.2422 2.0819 3.1412 1.2988 -1.7419 2.9487 -0.5435 -0.1105 -1.6950 0.2488 2.0345 -0.7859 -1.7658 -0.8870 1.0053 0.4574 -1.1111 -0.9406 1.3965 0.0117 -1.4379 -1.0869 1.3542 2.3112 0.7346 -0.6134 -0.3390 -1.0586 0.2955 0.1356 0.3626 -0.0045 0.0467 -2.5791 -1.6262 -3.0004 2.2189 1.1148 -1.8187 1.3434 1.0228
2.1101 3.3640 -1.4872 4.7770 1.1440 -0.4422 -0.0151 -4.3078 0.7234 -3.0477 -1.6515 -1.4055 -1.2358 1.8706 3.0791 1.5343 -2.9062 -0.4266 -3.3787 1.9716 2.3158 1.7535 1.9297 -1.7955 3.6456 0.4917 -1.1960 -2.7201 0.1880 0.1558 -0.5818 -2.0947 0.0933 1.4964 -0.0825 -0.3993 -0.4041 0.9205 0.7031 -2.1565 -0.5677 -1.0385 2.3213 1.0349 -0.7123 -0.7073 -1.0194 -0.8773 0.1180 0.2114 -0.5004 0.4123 -3.0450 0.0466 -2.2113 1.6417 2.1697 -1.7104 0.9069 0.9941
3.3198 2.2042 1.2891 3.6776 -1.2723 -1.3262 -1.2780 -2.9209 -2.9122 -0.4823 -1.5303 2.3778 -2.5570 3.2333 1.1973 0.7709 -3.1993 -1.7128 -3.8756 1.6612 2.1795 3.0702 2.0994 -0.1961 3.2457 0.1304 -1.6764 -2.2878 -0.4666 1.1479 -0.5603 -1.3358 -1.3061 1.1351 0.8912 -0.8939 -0.7483 1.3801 0.5132 -1.1109 -1.4281 1.0706 2.4974 0.7385 -0.5156 -0.0881 -1.0240 0.0215 0.3468 0.4269 0.1845 -0.2345 -2.5280 -1.9162 -2.8960 1.9623 1.5133 -1.9445 0.9779 0.9607
2.6140 3.3287 -1.5227 3.4281 0.3456 1.5651 -1.2341 -4.0497 -2.2775 0.0720 -1.1565 2.2011 -2.3713 3.3260 0.6488 0.2806 -4.0242 -0.4300 -3.5135 1.9388 2.0442 3.1919 1.9686 -1.2209 2.9680 -0.0308 0.1781 -1.9847 -0.3190 1.2159 -0.5829 -2.0241 -1.2488 1.2643 0.6004 -1.3768 -0.7669 1.3416 -0.1640 -0.8240 -1.2860 1.0654 2.2070 1.1209 -0.4436 -0.0434 -1.1524 -0.2315 0.0477 0.2592 -0.7628 -0.4170 -3.3905 -1.2136 -2.6223 2.1303 1.2298 -1.7136 1.0729 0.7437
4.4297 0.5516 1.2260 3.4039 -0.6697 -2.1589 -1.8289 -2.7674 -2.7348 0.6560 -0.9889 2.4069 -3.5774 2.3575 0.2840 0.4286 -1.9901 -2.6648 -3.5295 1.8527 2.5048 3.5007 1.3997 0.3958 2.6335 0.5612 -1.7429 -1.6208 -0.2631 1.9237 -0.9318 -1.7709 -0.7903 1.1894 1.1349 0.1133 -1.1362 1.2426 -0.0027 -0.4652 -1.1581 1.5034 2.4305 0.5418 -0.2435 -0.0355 -1.0051 0.0546 0.0598 0.4489 -0.4129 -0.6392 -2.1381 -2.0828 -3.0637 1.7522 1.3800 -1.9040 0.9082 1.0412
2.8629 1.9227 1.5165 4.6346 0.3155 -1.1496 -2.3492 -3.3722 -1.9301 1.0530 -1.1898 1.7938 -3.2989 2.4425 0.6629 -0.0579 -3.7418 -1.3568 -3.4314 1.2258 2.5802 2.5222 2.2827 0.0906 3.3756 0.8807 -1.7608 -1.2558 -0.4290 1.7293 -0.9463 -1.5970 -1.2497 1.0518 1.1345 -1.3975 -0.9561 1.3608 0.0238 -0.1911 -1.2814 1.0498 2.2951 1.0213 -0.7137 0.0591 -0.9690 -0.4189 0.0456 0.5187 -0.6552 -0.9867 -2.9522 -1.4796 -2.8416 1.5327 1.5549 -1.5848 0.8946 1.1100
3.9683 2.5182 -0.1681 3.7971 -0.6392 0.8272 -1.0762 -3.8039 -2.3091 -0.0045 -1.1389 2.5966 -2.6029 3.3213 0.7230 0.7379 -2.2573 -2.4919 -3.9160 1.9047 1.9256 3.0380 1.8305 -1.1382 2.9555 -0.5282 -0.4210 -2.0460 -0.2208 1.6142 -0.7981 -2.0721 -0.7527 1.0253 0.5962 -1.2444 -1.0483 1.2809 -0.0973 -0.8935 -1.1955 1.4573 2.1931 0.7826 -0.4424 -0.1356 -1.1535 0.1433 -0.0657 0.2373 -0.4455 -0.2436 -2.6425 -1.8700 -2.9356 2.1100 1.2246 -1.9492 1.0700 0.8690
2.4446 2.9177 -1.7818 3.5896 0.4056 1.6270 -1.0972 -3.9816 -2.2249 0.0211 -0.9614 2.6264 -2.4820 3.2529 0.1559 1.0492 -2.9969 -1.8621 -3.6449 2.1766 1.7876 3.1181 1.6863 -1.2297 2.9739 -0.1673 0.3738 -2.0094 -0.1564 1.5572 -0.7966 -2.2562 -0.6467 1.2202 0.2544 -1.1883 -0.8716 1.1600 -0.2160 -0.8926 -1.1886 1.5225 2.1742 0.8972 -0.3467 -0.1323 -1.3008 0.2109 0.0245 0.0220 -0.4981 -0.1395 -3.0395 -1.5681 -2.7410 2.1993 0.9651 -1.8081 1.0767 0.7359
2.9367 2.4723 -2.3844 3.4111 1.1007 1.7164 -1.6228 -3.5817 -2.0267 0.0498 -1.1490 2.8716 -3.0121 2.4081 -0.6699 0.6870 -3.0560 -1.7154 -3.6893 2.2006 1.4948 3.3287 1.1637 -1.7451 3.2500 0.1908 0.5216 -1.7897 0.0686 1.8797 -0.9354 -1.8469 -0.5727 1.3439 0.1070 -0.9606 -0.7015 1.1144 -0.0946 -0.8892 -1.1599 1.7604 2.4502 0.9043 -0.5474 -0.1063 -1.2561 0.4587 0.3992 0.1273 0.0834 -0.4812 -2.8235 -1.4276 -2.8959 1.9530 0.5985 -1.7331 1.0622 0.7594
3.9490 2.8971 -1.8269 3.1924 0.8841 1.6310 -2.2386 -3.0147 -1.9478 0.0030 -1.2934 2.6654 -2.7169 2.7279 -0.3090 -0.4474 -4.0161 -0.7174 -3.7631 1.8014 1.4892 3.2459 1.5709 -1.9895 3.4383 0.4491 0.2053 -1.9136 -0.3842 1.4865 -0.5216 -1.7120 -0.9826 1.4017 0.3847 -1.0759 -0.5666 1.1741 0.0783 -0.7705 -1.3878 1.4393 2.5094 1.2070 -0.7204 0.1318 -1.2343 0.2199 0.5743 0.2162 0.0640 -0.9792 -2.9980 -1.1415 -2.8246 1.8418 0.7069 -1.7037 0.8862 0.7249
3.8541 2.6561 0.4808 3.7496 -0.5601 0.2743 -2.3191 -3.5175 -1.8620 1.0038 -1.4699 1.5869 -3.2818 2.6161 0.6451 -0.2529 -3.8177 -0.7008 -3.2472 1.3848 2.5573 2.8995 2.4483 -0.6709 3.0269 -0.0017 -0.9280 -0.9433 -0.0528 1.7075 -0.9111 -1.6861 -1.3610 1.0507 1.2055 -1.4542 -1.0975 1.3979 -0.2901 -0.2360 -1.1325 0.9160 2.1291 1.1513 -0.5212 0.0075 -0.8944 -0.5663 -0.1049 0.5539 -0.9907 -1.0431 -3.0508 -1.2387 -2.7543 1.6935 1.4824 -1.5298 1.0765 0.9337
1.9249 3.3296 0.0416 3.9822 -0.0787 0.8084 -1.7198 -3.8489 -2.0941 0.8642 -0.6850 2.2292 -3.1252 2.6053 0.0949 0.5812 -3.2042 -2.1049 -3.1319 2.0995 2.3138 2.4940 2.3062 -0.9090 3.3152 0.0150 -0.5417 -1.4744 -0.2005 1.7664 -0.8861 -2.2427 -0.5779 1.1484 0.4240 -1.4069 -0.9371 1.0954 -0.2895 -0.2979 -1.1186 1.4775 2.1010 0.9136 -0.4688 0.0269 -1.2808 0.0014 -0.0409 0.0188 -0.7759 -0.5337 -3.0769 -1.6125 -2.6743 1.9513 1.1908 -1.6166 0.9777 0.8573

>  <OB_ATOM_TYPES> (2qwkA1)
C.3 C.3 C.3 N.3 O.co2 O.2 O.co2 C.3 C.3 C.3 N.am O.3 C.2 C.3 C.3 C.3 C.3 C.2 C.2 C.2

>  <ENSEMBLE_RMSD> (2qwkA1)
0.787 0.804 1.014 1.116 1.178 1.344 1.362 1.506 1.507 1.520 1.531 1.533 1.537 1.582 1.589 1.597 1.604 1.614 1.617 1.632 1.686 1.699 1.726 1.746 1.770 1.780 1.806 1.808 1.814 1.826 1.830 1.836 1.866 1.867 1.876 1.899 1.916 1.979 1.984 1.989 2.033 2.118 2.127 2.160 2.182 2.197 2.217 2.229 2.235 2.330

$$$$
