
 OpenBabel03071213D

 21 22  0  0  0  0  0  0  0  0999 V2000
   62.2810  -18.3700   10.2430 C   0  0  0  0  0
   62.1730  -15.7380    1.2590 O   0  0  0  0  0
   62.2080  -14.4830    6.0210 O   0  0  0  0  0
   65.1160  -14.8460    2.8720 O   0  0  0  0  0
   65.5780  -16.8420    4.9390 O   0  0  0  0  0
   62.8840  -18.8800    7.0690 O   0  0  0  0  0
   62.3780  -14.5190    1.9810 C   0  0  0  0  0
   63.5480  -16.7710    7.0620 N   0  0  0  0  0
   61.7220  -15.6210    4.0420 O   0  0  0  0  0
   65.9120  -17.8330   11.1030 C   0  0  0  0  0
   66.5130  -17.7840    9.8400 C   0  0  0  0  0
   64.6150  -18.3400   11.2270 C   0  0  0  0  0
   65.7590  -18.1130    8.7080 C   0  0  0  0  0
   61.9960  -15.7710    5.4370 C   0  0  0  0  0
   64.0790  -15.6290    3.4660 C   0  0  0  0  0
   64.4520  -15.9560    4.9230 C   0  0  0  0  0
   62.7570  -14.8400    3.4370 C   0  0  0  0  0
   63.2580  -16.6320    5.6240 C   0  0  0  0  0
   63.8040  -18.4400   10.0900 C   0  0  0  0  0
   63.4830  -17.9620    7.6350 C   0  0  0  0  0
   64.3770  -18.2740    8.8240 C   0  0  0  0  0
  1 19  1  0  0  0
  2  7  1  0  0  0
  3 14  1  0  0  0
  4 15  1  0  0  0
  5 16  1  0  0  0
  6 20  2  0  0  0
  7 17  1  0  0  0
  8 18  1  0  0  0
  8 20  1  0  0  0
  9 14  1  0  0  0
  9 17  1  0  0  0
 10 11  1  0  0  0
 10 12  2  0  0  0
 11 13  2  0  0  0
 12 19  1  0  0  0
 13 21  1  0  0  0
 14 18  1  0  0  0
 15 16  1  0  0  0
 15 17  1  0  0  0
 16 18  1  0  0  0
 19 21  2  0  0  0
 20 21  1  0  0  0
M  END
>  <MOLID> (2yhxA1)
2yhxA1

>  <SMILES_CANONICAL> (2yhxA1)
OC[C@H]1O[C@H](O)[C@@H]([C@H]([C@@H]1O)O)NC(=O)c1ccccc1C	

>  <FINGERPRINT> (2yhxA1)
0000000000000000000000000000100000000001000000000101100000000000000000000001000000000001000000001001000000000001000001110000000010000000001110000000000011000000000000000000000010000000000000000000000000000000001010000000000000100010000000000001000000000000000000000000000000000000000000000000000100000000000010001110000000000000001000000000000000000000010000000000000110000000000000000000000000000000100010000000001000000011101000000000000000000000000000000000000000010100000010000000000000101001100100000000100000010000000000000000000000000000000000100000000000000000000000000001000111000000001000000000000000000000000000000000001000000001000000000000001000000000001000000001100000010110100001100000000000010111000000000000000010000000000010000101000000000000000111000001000000000000000001000000000111000000000000000000000000000000000000001000000001000010000000001011000000000000000000000010000100000000000000000000001100000000000000000000011000000000000000011010000010100100000000000000000000000000000000000000101000000000

>  <MACCS166> (2yhxA1)
000000000000000000000000000000000000000000000000010011001000000000000001000100000100000011110010111000000001110000001001001000100011100111111111110011111111111110111000

>  <OB_MW> (2yhxA1)
297.121

>  <OB_logP> (2yhxA1)
-1.0844

>  <OB_PSA> (2yhxA1)
119.25

>  <OB_MR> (2yhxA1)
72.0574

>  <OB_ATOMIC_CHARGES> (2yhxA1)
0.0311767804 -0.2176082083 -0.1878768288 -0.2176348553 -0.2182836676 -0.2683772546 0.2142067688 -0.1954024408 -0.3242266069 -0.0003187424 0.0001267541 -0.0041122248 0.0042478275 0.2917456471 0.213577801 0.2095105611 0.1835135079 0.1874078548 -0.0174236533 0.2646528994 0.0510980808

>  <MCT_HBD> (2yhxA1)
5

>  <MCT_HBA> (2yhxA1)
7

>  <ENSEMBLE_TOTAL> (2yhxA1)
44

>  <ENSEMBLE_COORDS> (2yhxA1)
-1.0605 -2.8294 3.3982 -1.8428 0.7798 -5.0314 -1.0957 2.7727 -0.4303 1.3878 1.1981 -3.7181 1.4689 -0.4663 -1.4210 -0.5409 -2.1813 0.5063 -1.2986 2.0149 -4.5916 -0.4573 0.1329 0.6583 -1.9761 1.6752 -2.3263 2.0550 -1.2706 4.7276 2.5100 -0.4732 3.6050 0.9268 -1.9932 4.6248 1.7939 -0.4404 2.4680 -1.6396 1.5652 -0.9444 0.2314 0.8397 -2.9801 0.5975 0.6485 -1.5231 -0.8375 1.9059 -3.1520 -0.6788 0.4067 -0.7395 0.1395 -1.9521 3.4001 -0.2244 -1.1549 1.0984 0.5415 -1.1781 2.3712
-1.5361 -2.0083 3.4879 -1.2705 -0.5981 -4.4377 -1.7199 2.8659 -0.6992 1.1729 1.7837 -3.8780 2.1173 1.1094 -1.2360 -1.2732 -1.2516 0.7012 -1.5598 0.7937 -4.4458 0.1203 0.6112 0.7545 -1.9773 0.9859 -2.1165 2.0909 -2.2748 4.2990 2.7194 -1.6295 3.1628 0.7507 -2.3327 4.3896 1.9614 -1.1093 2.1835 -1.6087 1.4578 -0.8231 0.3791 1.1581 -2.8842 0.8158 1.6036 -1.4988 -1.0997 1.4360 -3.1509 -0.1996 1.0079 -0.5670 -0.0744 -1.7903 3.3207 -0.3191 -0.6363 1.1695 0.5107 -1.1821 2.2683
-1.4756 -0.9808 3.4225 -2.1943 1.0987 -5.0231 -2.6927 1.4112 -0.0039 1.5051 1.1290 -3.5726 2.0864 1.1258 -0.7565 -0.5768 -1.4542 -0.0077 -1.1893 0.3603 -4.3444 -0.1300 0.6728 0.8300 -1.7776 0.7015 -2.0557 1.9850 -2.0538 4.3145 2.6773 -1.9671 3.0419 0.6742 -1.7623 4.3890 2.0157 -1.5720 1.9393 -1.6583 1.5882 -0.9528 0.5524 0.7723 -2.5836 0.8554 1.5400 -1.3160 -0.8517 1.0917 -3.0662 -0.2796 1.5363 -0.3128 -0.0453 -1.3214 3.2037 -0.0890 -0.7018 0.8254 0.6087 -1.2144 2.0290
-1.0643 -0.2195 3.7933 -0.8586 1.7836 -5.5373 -2.7132 -0.3165 -1.1767 1.1820 0.8873 -3.6068 1.8988 0.9606 -1.0325 -0.8818 -2.1710 0.7328 -1.4747 2.2825 -4.3618 -0.2294 0.0589 0.6197 -1.9794 1.7300 -2.1114 2.2474 -1.7484 4.5825 2.7037 -2.1962 3.2813 1.0669 -1.1170 4.7030 1.9394 -1.9961 2.1930 -1.8524 0.8008 -1.0421 0.3395 1.6548 -2.7659 0.5621 1.3448 -1.2951 -1.1018 1.4093 -3.1868 -0.4291 0.3173 -0.7900 0.2231 -0.9153 3.5343 -0.2303 -1.2158 1.1405 0.6520 -1.3343 2.3262
-1.7907 -1.4077 3.1507 -2.5669 3.2749 -3.5577 -0.9078 1.4648 0.0509 1.0498 1.6737 -4.1435 2.1255 -0.3666 -2.5097 -0.6506 -2.5123 0.6598 -1.7898 2.1730 -4.0002 0.7907 -0.8091 0.0317 -1.8116 0.8269 -2.0384 1.3689 -0.4797 4.8807 2.3640 -0.6387 3.8378 0.0909 -0.8239 4.6461 2.0055 -1.1227 2.6356 -1.1535 0.3983 -0.8522 0.2402 0.8798 -3.2951 1.0352 0.4338 -2.0824 -0.9746 1.6642 -2.8343 0.1233 -0.3683 -1.1705 -0.3226 -1.2408 3.3146 0.1748 -1.6487 0.9385 0.5995 -1.3708 2.3376
-1.0761 -0.0340 3.7804 -1.2086 3.0477 -4.8755 -2.8034 -0.1151 -0.6401 1.3596 1.6953 -3.7514 1.9359 0.5357 -1.2288 -0.9342 -2.1258 0.8597 -1.3476 2.5915 -3.5382 -0.2534 0.0731 0.5331 -1.9230 0.3832 -2.7454 2.1890 -1.6343 4.6282 2.6380 -2.1316 3.3403 1.0344 -0.9513 4.7220 1.8965 -1.9128 2.2398 -1.7876 0.5902 -1.3386 0.4512 0.8468 -3.0740 0.6331 0.9734 -1.5757 -0.9776 1.1270 -3.5040 -0.4118 0.1097 -0.8974 0.2142 -0.7352 3.5415 -0.2683 -1.1457 1.1786 0.6396 -1.1880 2.3453
-1.7124 -1.5410 2.4972 -3.0544 1.7383 -4.2772 -1.7423 1.6238 0.4928 0.8976 0.7209 -4.2712 2.2607 0.2103 -1.7744 0.2742 -1.6379 -0.0602 -1.9935 0.8056 -4.1375 0.7958 0.5474 0.5453 -1.7332 1.0134 -1.7777 1.1309 -1.7187 4.9103 2.2684 -1.3676 4.0805 -0.1030 -1.7674 4.3774 2.0905 -1.0940 2.7760 -1.0547 1.7048 -0.7409 0.2386 0.5353 -3.0290 1.1301 1.0467 -1.9191 -1.0875 1.2727 -3.0217 0.3915 1.2734 -0.6204 -0.3064 -1.4556 2.9707 0.5576 -0.7870 0.7743 0.7515 -1.1234 2.2047
-1.4781 -1.8235 2.9629 -1.5104 2.5152 -5.2306 -1.7304 1.8499 -0.4172 1.0872 1.5299 -3.8121 1.8194 -0.2374 -1.6793 0.2425 1.3206 1.6187 -1.7415 1.2650 -4.6050 -0.1014 -0.6351 0.4011 -2.1676 0.6117 -2.3782 1.8151 -2.4149 4.5997 2.6764 -1.4584 3.9308 0.5259 -2.5273 4.2358 2.1856 -0.6771 2.9525 -1.7812 0.5591 -1.0055 0.1658 0.7184 -3.1037 0.6403 0.5527 -1.6745 -1.2272 1.3264 -3.1832 -0.4489 -0.1502 -0.9040 -0.0238 -1.6523 3.2128 0.2695 0.1026 1.4988 0.7827 -0.7753 2.5800
-1.4346 -2.5248 2.3095 -2.5608 -0.4115 -3.5970 -1.6299 2.8294 0.1853 0.9616 0.5764 -4.0505 2.1705 0.2159 -1.3930 -0.1806 -1.3661 -0.1487 -1.9633 0.7893 -4.0577 0.2202 0.7763 0.6499 -1.7178 1.5148 -1.7736 1.4089 -1.8865 4.6359 2.2033 -0.9177 3.9060 0.2866 -2.3840 4.0878 1.8380 -0.5465 2.6666 -0.9191 2.3222 -0.9250 0.2368 0.5450 -2.8286 1.1157 1.0942 -1.7221 -1.0336 1.3590 -3.0073 0.3595 1.6146 -0.5167 -0.1475 -1.9411 2.7708 0.1776 -0.5938 0.7313 0.6087 -1.0650 2.0772
-1.6453 -1.5054 3.2913 -1.5529 3.8539 -2.9506 -2.1860 0.3247 0.0022 0.8410 0.9664 -4.5528 1.7043 -0.8585 -2.5704 -0.4763 -2.4935 0.6722 -0.5211 2.8857 -2.8656 0.5402 -0.5006 0.0458 -1.9529 1.0424 -2.2049 1.5716 -0.4331 4.8423 2.4930 -0.4706 3.7230 0.2875 -0.7926 4.6701 2.0615 -0.8624 2.5119 -1.2676 0.7749 -0.9839 -0.0208 0.4963 -3.5328 0.7695 0.1675 -2.2831 -1.0900 1.5272 -3.2267 -0.1818 -0.2767 -1.1845 -0.1977 -1.1727 3.3517 0.1679 -1.4850 0.9373 0.6559 -1.1878 2.3074
-1.1377 -0.7848 4.1133 -0.9983 0.3663 -5.1727 -3.0037 0.1039 -0.6843 1.3546 2.3268 -3.1213 1.7945 0.3310 -1.0850 -0.0167 1.3690 1.8737 -1.1062 1.6997 -4.6922 -0.5770 -0.4022 0.4800 -1.9833 0.8805 -2.6405 1.9762 -2.8258 3.8785 2.5726 -2.3493 2.6455 0.8004 -2.3251 4.2961 1.9579 -1.3909 1.9331 -1.8969 0.8111 -1.2204 0.4325 1.3114 -2.7617 0.5553 0.9883 -1.2879 -0.9693 1.7192 -3.1816 -0.6018 0.1026 -0.8695 0.1351 -1.2816 3.5333 0.0146 0.1842 1.5685 0.6974 -0.8342 2.3950
-1.5411 -1.8290 2.5397 -1.9542 0.2427 -4.8844 -2.3814 0.6647 0.0443 1.1779 1.5573 -4.0756 2.0569 0.1596 -1.7692 -0.0662 1.4716 2.0255 -1.7081 1.5961 -4.5311 0.3586 -0.1395 0.3969 -1.9570 1.1323 -2.2014 1.6569 -2.8010 4.2005 2.5377 -1.7013 3.8528 0.3736 -2.7897 3.7989 2.0806 -0.6844 3.1008 -1.4319 1.1900 -0.8707 0.2873 0.9591 -3.1526 0.8869 0.9625 -1.7632 -1.0550 1.6733 -3.1645 -0.1541 0.3741 -0.8395 -0.1284 -1.6959 2.9815 0.2604 0.3467 1.6729 0.7008 -0.6891 2.6385
-1.4330 -2.0712 2.5287 -1.5462 1.7570 -5.5049 -2.4877 1.1697 0.0756 1.1132 0.9681 -4.0902 2.0240 0.3336 -1.4316 -0.1819 1.3380 2.2695 -1.7434 0.7280 -4.5467 0.0018 -0.0106 0.3817 -1.9637 0.7338 -2.1758 1.8083 -2.7060 4.2668 2.6152 -1.5760 3.8460 0.5519 -2.8455 3.8077 2.1100 -0.6691 2.9910 -1.5683 1.3844 -0.9784 0.2507 0.5710 -3.0351 0.8380 1.0442 -1.7259 -1.1268 1.1705 -3.2412 -0.1395 1.0605 -0.5674 -0.0126 -1.8516 2.9078 0.1417 0.2875 1.7232 0.7482 -0.8163 2.4993
1.0869 -3.4294 2.2837 -2.4719 1.1928 -4.6397 -0.3025 2.4940 -0.2814 1.0985 1.1669 -4.2776 1.5977 -0.7974 -2.2717 -1.3016 -1.7181 0.9134 -1.6197 2.2745 -4.2935 0.4181 -0.2691 0.3111 -1.7222 1.6654 -1.9819 1.2556 -1.0531 5.1575 0.5762 0.1189 4.6369 1.4037 -2.1457 4.3873 0.0982 0.1160 3.3802 -1.0441 1.3819 -0.7621 0.1494 0.7929 -3.2927 0.8709 0.3956 -2.0216 -0.8205 1.9372 -3.0511 -0.1588 0.1599 -0.9367 0.8961 -2.1543 3.0239 -0.2931 -1.0726 1.1770 0.2831 -1.0562 2.5389
0.7925 -3.1989 1.7362 -1.0215 2.2688 -5.5802 -2.0659 1.9393 0.1248 0.9671 0.4500 -4.1974 1.2893 -0.9605 -1.7425 -1.5525 -0.9346 1.4735 -1.7267 1.6252 -4.5331 0.1927 0.3147 0.5795 -1.8120 1.7101 -2.1819 1.8639 -1.6208 4.9451 1.3670 -0.2642 4.8083 1.6886 -2.5074 3.9490 0.7084 0.1025 3.6947 -1.1328 1.7505 -0.9290 -0.0210 0.4194 -3.1806 0.6535 0.3050 -1.8294 -0.8912 1.6640 -3.2701 -0.3863 0.4378 -0.7353 0.9773 -2.1188 2.7406 -0.3976 -0.5214 1.5045 0.5072 -0.8606 2.6233
-0.1344 0.5457 3.9155 -1.7553 1.7531 -5.4867 -2.5815 0.5496 -1.1177 0.7375 3.0729 -2.6303 1.4494 1.5247 -0.3415 -1.6600 -0.5306 1.6176 -0.5547 1.5334 -4.7667 0.0588 -0.9075 0.1132 -1.3558 0.0708 -3.0824 2.3972 -2.1673 4.2363 2.1982 -2.9319 3.0198 1.5922 -1.1268 4.5127 1.2184 -2.5908 2.1635 -1.5636 -0.2507 -1.7048 0.3812 1.7111 -2.4786 0.2111 1.3740 -1.0092 -0.8737 1.4030 -3.2907 -0.2548 -0.0546 -0.9857 0.5877 -0.7006 3.5500 -0.5155 -0.8835 1.3600 0.4177 -1.3941 2.4056
1.2580 -3.0285 1.6373 -2.4281 2.5139 -4.8434 -0.9503 2.5546 -0.6239 1.1916 0.9663 -4.1819 1.8747 -0.4408 -1.7897 -1.5249 -1.0737 1.3512 -1.6795 1.3343 -4.6037 0.2697 0.1636 0.5384 -1.9225 1.1419 -2.2541 1.5126 -1.6859 5.1083 0.7613 -0.4493 5.0226 1.6946 -2.4459 4.0141 0.2462 -0.0585 3.8436 -1.3601 1.2353 -0.9498 0.2382 0.5589 -3.2149 0.8689 0.5589 -1.8340 -0.9772 1.4708 -3.2718 -0.2115 0.2521 -0.8173 1.1058 -2.0511 2.7455 -0.3891 -0.6237 1.4586 0.4214 -0.8931 2.6649
0.3056 -2.8501 1.0461 -2.0669 -0.1853 -4.3714 -2.2325 2.0731 0.0168 1.3692 0.9556 -3.9496 1.8863 -0.0674 -1.3202 -1.6783 -0.2622 1.6997 -1.5454 1.1257 -4.5486 0.1568 0.8178 0.7669 -1.8121 1.5834 -2.2297 1.8839 -2.2998 4.3816 1.5906 -0.9004 4.6408 1.5049 -2.8662 3.2214 0.9121 -0.1752 3.7338 -1.2290 1.9335 -0.9755 0.3624 0.7153 -2.9831 0.9178 0.9335 -1.5906 -0.8481 1.5902 -3.2805 -0.2390 0.8360 -0.6154 0.7553 -2.0928 2.2429 -0.4693 -0.0678 1.6210 0.4754 -0.7970 2.4935
-0.8315 0.6974 2.5545 -2.5451 3.3185 -3.0012 -2.2842 -0.5976 -0.5284 1.1235 1.9655 -4.0094 2.2008 0.0825 -2.1741 -0.2526 -2.5896 0.5426 -1.2649 2.8147 -2.6564 0.5363 -0.4488 0.0988 -1.8794 0.4739 -2.5584 1.3686 -1.0367 5.0065 1.8613 -2.1682 4.2441 0.5673 -0.1298 4.4213 1.5560 -2.2855 2.9396 -1.4082 0.2731 -1.2271 0.3334 0.9775 -3.3720 0.9138 0.6542 -2.0130 -1.1072 1.4362 -3.2649 0.0105 -0.2946 -1.2423 0.1648 -0.2963 3.0339 0.2609 -1.5345 0.8992 0.6759 -1.3119 2.3069
2.1739 -2.1118 1.2429 -1.9037 0.4083 -4.8934 -1.2459 2.7802 -0.4912 1.3374 1.4005 -3.7746 1.6637 -0.2088 -1.4086 -1.2972 -1.7534 0.9421 -1.4669 1.7279 -4.6025 -0.2056 0.2900 0.7029 -2.0158 1.4583 -2.2926 1.6232 -1.7657 4.9278 0.3231 -1.1214 4.9862 2.1808 -2.0522 3.7371 -0.3162 -0.7954 3.8488 -1.6221 1.4829 -0.9234 0.2656 0.9083 -2.9864 0.6944 0.8205 -1.5343 -0.9502 1.8004 -3.1782 -0.5134 0.4754 -0.6928 1.4815 -1.7303 2.5022 -0.4956 -0.9079 1.3249 0.2891 -1.1058 2.5633
-1.6463 -1.0684 2.9000 -1.9266 3.3642 -3.7291 -2.3726 -0.5260 -0.2930 0.9867 1.2818 -4.2477 1.9541 -0.5925 -2.3461 0.2616 1.3291 1.1580 -1.1411 2.5992 -2.8263 0.4553 -0.7482 0.1111 -2.0403 0.3925 -2.4039 1.4564 -2.0034 4.7585 2.5004 -1.3704 3.9731 0.1704 -1.8983 4.3811 2.1773 -0.6907 2.8589 -1.4788 0.2111 -1.1089 0.1401 0.4775 -3.4427 0.8059 0.2081 -2.1098 -1.2092 1.1516 -3.2683 -0.1442 -0.5136 -1.1788 -0.1885 -1.1395 3.1908 0.4566 0.1212 1.1803 0.7827 -0.5850 2.4427
-1.0796 0.3528 3.2257 -1.8714 3.1228 -4.5858 -2.3947 -0.6108 -0.2430 0.9343 2.0260 -3.7120 1.9743 -0.1797 -2.1857 1.3226 1.0154 1.0908 -1.9521 1.7429 -4.2719 0.3956 -0.8964 0.1325 -2.0550 0.5163 -2.2581 0.9393 -2.3602 4.8087 2.0050 -2.5551 3.8418 -0.0267 -1.4545 4.5737 2.0066 -1.8597 2.6896 -1.5247 0.2530 -0.9595 0.1384 0.9903 -3.1570 0.7776 0.5143 -1.8702 -1.2771 1.4983 -2.9379 -0.1601 -0.4021 -1.1100 -0.0131 -0.6747 3.3463 0.9165 -0.1384 1.1560 0.9444 -0.9004 2.4260
-0.2971 0.8906 3.5311 -1.4768 3.4295 -4.4076 -2.2229 -1.5736 -1.5652 0.9254 2.7998 -2.6422 1.9395 0.6979 -1.0133 -1.6999 -0.7600 1.4478 -1.2419 2.0306 -4.4294 0.0854 -1.1623 0.0255 -1.6685 0.2373 -2.9331 2.2507 -1.6783 4.4477 2.1451 -2.6322 3.3603 1.4710 -0.5825 4.4637 1.2698 -2.4166 2.3639 -1.6182 -0.2867 -1.6038 0.3741 1.4947 -2.6148 0.5521 0.9098 -1.2315 -1.0937 1.5412 -3.0036 -0.1657 -0.4167 -1.1799 0.5327 -0.3337 3.3794 -0.5113 -0.9794 1.2479 0.4503 -1.2097 2.3573
0.8179 0.7931 3.7561 -0.0596 0.7225 -5.3016 -2.8125 0.6125 -1.0880 0.6598 3.0666 -2.6137 1.2290 1.5505 -0.2837 -1.3901 0.2100 1.8802 -0.8622 1.7447 -4.7299 -0.2681 -0.8552 0.1621 -1.5986 0.1829 -3.0701 2.2769 -2.6269 3.9945 1.6125 -3.3305 2.9141 1.9531 -1.3496 4.2606 0.6795 -2.7027 2.1760 -1.7956 -0.1689 -1.6994 0.2186 1.7320 -2.4533 0.0084 1.4130 -0.9840 -1.0608 1.4947 -3.2474 -0.4846 -0.0104 -0.9691 0.9989 -0.6430 3.4187 -0.5155 -0.5467 1.4771 0.3930 -1.2888 2.4007
0.7511 -3.3614 2.7372 -0.6241 3.9344 -3.1457 -1.9771 1.2529 0.0837 0.5887 0.2639 -4.6844 0.8248 -1.6208 -2.5520 -1.3379 -1.7488 1.1152 0.0681 2.6993 -3.2321 0.3070 -0.4876 0.0712 -1.7983 1.5150 -2.2250 1.5064 -0.4692 4.9690 1.0816 0.6648 4.1697 1.4067 -1.7160 4.4756 0.5582 0.4681 2.9468 -1.0927 1.2030 -1.0262 -0.3021 0.2146 -3.5842 0.4285 -0.2733 -2.3502 -0.9385 1.5715 -3.3559 -0.4572 -0.1801 -1.1204 0.8538 -1.9363 3.1479 -0.2895 -1.1121 1.1457 0.4426 -0.8820 2.4139
0.4675 -3.2795 2.0045 -2.7781 1.6836 -4.3533 0.2227 2.3177 -0.3662 0.6137 0.4122 -4.3272 0.5040 -1.5459 -2.2266 2.0473 -0.2770 0.5720 -1.5580 2.3974 -4.2137 -0.2557 -0.5812 0.3868 -1.5869 2.0113 -1.8561 0.4219 -1.3679 5.2097 0.6809 -0.0102 4.7677 0.3648 -2.3696 4.3141 0.8490 0.2529 3.4602 -0.9296 1.5503 -0.6785 -0.3082 0.4456 -3.2506 0.3326 -0.1527 -2.0158 -0.7792 1.8735 -3.0230 -0.5903 0.0844 -0.8430 0.5593 -2.0950 2.8984 0.9466 -0.5216 1.0501 0.7759 -0.8283 2.4902
2.5096 0.1314 2.5297 -2.6400 1.8676 -4.8687 -2.7068 0.0890 -1.0628 1.1180 0.5808 -3.8161 2.0433 0.5166 -1.3294 0.6881 -2.1210 0.2211 -1.3589 2.2780 -4.4143 -0.0840 0.0471 0.5494 -1.7043 1.9789 -2.0679 0.7682 -1.8763 5.1480 -0.3181 -2.4866 4.4047 1.6093 -1.0251 4.5344 -0.4831 -2.2045 3.1002 -1.6651 1.0480 -0.9921 0.4862 1.4807 -2.9219 0.7866 1.1519 -1.4660 -1.0080 1.4623 -3.1941 -0.3300 0.3319 -0.8454 1.4653 -0.7513 3.1123 0.3754 -1.1874 0.9525 0.4483 -1.3118 2.4266
0.5899 0.8894 3.4777 -0.6944 2.1501 -5.4172 -2.8200 -0.8392 -1.1753 1.1191 2.6731 -2.7618 1.0018 1.9056 -0.0149 -1.8467 -0.7767 1.9572 -0.2715 1.0116 -4.6813 -0.3843 -0.4849 0.1738 -1.3397 -0.0042 -2.8061 2.4756 -2.3065 3.8776 1.8624 -3.1595 2.8759 2.0635 -1.0345 4.0246 0.8782 -2.6803 2.0950 -1.9950 0.2421 -1.5694 0.4538 1.4988 -2.3267 -0.0653 1.7168 -0.9228 -0.7106 1.1929 -3.2485 -1.0276 0.6386 -0.4616 0.9955 -0.5100 3.1869 -0.7231 -0.8209 1.4681 0.4385 -1.3024 2.2487
-0.1528 1.0396 3.4144 -2.8174 2.4039 -4.0198 -1.4943 -1.8052 -1.7771 0.7803 3.0913 -2.8103 2.1541 1.2322 -1.0927 -1.5876 -0.5216 1.0997 -1.9318 2.2205 -2.9253 0.4805 -0.8046 0.0546 -1.0924 -0.0306 -3.2368 1.8010 -1.9025 4.6231 1.6351 -2.8547 3.5410 1.2252 -0.6895 4.5471 0.9030 -2.5261 2.4616 -1.0927 -0.4464 -1.8713 0.5644 1.6914 -2.8002 0.7690 1.1548 -1.3999 -0.7883 1.3472 -3.3872 0.3007 -0.2816 -1.2853 0.4373 -0.3238 3.3796 -0.3930 -0.7912 1.1178 0.2996 -1.2028 2.3668
0.5422 -2.7922 1.1427 -1.6242 1.5353 -5.5035 -0.5866 2.8851 -0.7033 0.5784 0.2184 -4.0532 1.2166 -0.8358 -1.4978 1.6732 1.0907 1.3072 -2.2369 1.1586 -4.2834 -0.3512 0.1057 0.7770 -2.1311 1.6306 -1.9862 0.7977 -2.4367 4.8397 1.0211 -1.0148 5.0113 0.6984 -2.9547 3.6032 1.0857 -0.2105 3.9365 -1.4135 1.7318 -0.7585 -0.3203 0.2675 -2.9592 0.4515 0.3443 -1.6536 -1.2926 1.4328 -3.1296 -0.6024 0.4730 -0.5818 0.7537 -2.0873 2.4339 0.8316 0.2129 1.4635 0.9088 -0.7548 2.5951
0.6852 0.5435 4.3665 -2.2369 1.1379 -5.3958 -2.2381 0.2306 -0.9134 0.3511 3.1562 -3.1233 1.5873 2.0823 -0.7918 -0.5916 0.9034 1.7764 -0.9163 1.1864 -4.8814 0.6244 -0.3537 0.2526 -1.1430 -0.2067 -2.9665 1.2054 -3.1446 4.2873 0.9320 -3.4767 2.9036 1.1501 -1.8645 4.6932 0.5660 -2.5114 2.0443 -1.1277 -0.3875 -1.5477 0.2850 1.7823 -2.7845 0.3391 1.6199 -1.2774 -0.9789 1.1581 -3.3667 0.1806 0.1465 -1.0124 0.7508 -0.8143 3.7661 0.0986 -0.0673 1.4902 0.4768 -1.1205 2.4806
0.7258 1.3585 2.5167 -0.6151 2.9791 -4.7785 -3.0277 -0.1902 -0.4666 0.8678 1.9610 -1.6370 0.2180 -1.2085 -3.2204 1.6183 -1.6932 0.1829 -1.1568 2.9353 -3.4670 -0.3140 -0.4098 0.2460 -1.9097 1.3951 -1.8072 1.3413 -1.3398 5.0133 1.1555 -2.5467 4.2318 1.1596 -0.1359 4.4431 0.8361 -2.4595 2.9292 -2.0576 0.0222 -1.4753 0.3335 1.0971 -2.6295 0.3675 -0.3284 -2.1163 -1.0906 1.5107 -2.9672 -0.7364 -0.6420 -1.1160 0.8469 -0.0331 3.0250 0.7297 -1.1161 0.8042 0.7078 -1.1555 2.2887
1.8158 -2.3689 0.8272 -2.1085 0.6532 -4.9378 -1.8898 2.8239 0.0876 1.0412 -0.1113 -3.5414 2.2093 0.4808 -0.9998 -1.0925 -0.9169 0.2054 -1.8631 0.0094 -3.6965 0.1127 0.9833 0.8142 -1.7815 1.2984 -1.7048 1.2934 -2.0327 4.5094 0.2086 -1.0734 4.5861 1.7718 -2.4165 3.3117 -0.3093 -0.5531 3.4592 -1.0909 2.2824 -0.9491 0.2633 0.2318 -2.4069 1.0670 1.1398 -1.5046 -1.0140 0.9279 -2.8459 0.2276 1.7556 -0.4032 1.2187 -1.8545 2.0881 -0.3120 -0.3190 0.9358 0.2324 -0.9401 2.1653
0.8098 0.5279 4.3518 -0.8298 0.3014 -5.2792 -1.8549 -1.1428 -0.7721 0.5305 3.1032 -3.3416 1.8241 1.9650 -1.1086 -0.7944 0.9550 1.8830 -1.4579 1.4373 -4.7007 0.5928 -0.0548 0.3193 -1.6265 0.2090 -2.6558 1.1751 -3.1725 4.0901 0.7783 -3.4321 2.7214 1.2178 -1.9101 4.5497 0.3854 -2.4174 1.9320 -1.4136 0.1212 -1.2431 0.2161 1.8041 -2.8764 0.4586 1.7130 -1.3872 -1.2307 1.4659 -3.1995 0.0728 0.3123 -0.9706 0.7787 -0.8083 3.7063 -0.0206 0.0702 1.5421 0.3883 -1.0476 2.4391
2.4232 0.3318 2.0749 -0.6408 3.6382 -4.0832 -2.8560 0.2446 -0.3241 1.0016 1.1153 -4.1526 1.5237 -0.6685 -1.9990 0.3368 -2.4372 0.4242 -0.9492 2.8913 -2.9185 -0.1348 -0.1645 0.3655 -2.2386 0.8932 -2.4821 1.0782 -1.2723 5.1650 -0.0546 -2.0243 4.6600 1.8156 -0.5241 4.3254 -0.3589 -1.9858 3.3508 -1.8102 0.7737 -1.1277 -0.0119 0.5648 -3.3309 0.5212 0.3345 -1.9329 -1.2364 1.4582 -3.3192 -0.5919 -0.1318 -1.0085 1.5042 -0.4930 2.9035 0.2251 -1.3463 0.9749 0.4537 -1.1978 2.4343
-0.1997 -3.1705 1.7775 -3.2470 1.3359 -3.5770 -0.2071 2.5766 0.3655 -0.2601 -0.1182 -4.4570 1.1855 -1.2519 -2.2739 2.4006 -0.8904 0.7289 -2.0919 2.0686 -3.9471 0.2730 -0.1694 0.1354 -1.2249 2.0565 -1.6979 -0.0014 -1.3677 5.0371 0.6714 -0.1343 4.6746 -0.3025 -2.2740 4.0897 0.9954 0.1033 3.3912 -0.0250 2.0632 -0.9403 -0.5064 0.2603 -3.1118 0.7607 0.0943 -2.3025 -0.9315 1.7154 -3.0467 0.6879 0.7194 -0.9207 0.0958 -2.0483 2.7064 1.2242 -0.6767 0.9995 0.7029 -0.8921 2.3691
2.2806 -2.7800 2.2671 -2.3363 1.7942 -5.0783 -1.8151 2.1852 -0.0841 0.7587 0.4856 -4.1776 0.2842 -1.6484 -2.0408 1.9434 -0.1881 0.6428 -1.2932 2.3857 -4.3175 -0.3635 -0.4061 0.4415 -0.5109 2.3717 -2.0436 0.2561 -1.6441 5.1852 -0.4513 -0.4956 4.6525 1.1114 -2.3279 4.4052 -0.2440 -0.1083 3.3820 -0.6444 1.7559 -0.7597 -0.3146 0.2926 -3.2720 0.2546 -0.2336 -1.9687 -1.1085 1.5741 -3.0582 -0.6216 0.2339 -0.8262 1.3172 -1.9337 3.0188 0.8400 -0.4469 1.1082 0.6571 -0.8663 2.5233
-0.2384 0.5716 4.2310 -2.8165 0.9471 -4.4223 -0.5257 -1.8516 -1.4200 0.2859 3.2879 -3.2443 1.4243 2.5097 -0.7812 -1.2636 0.4538 1.3844 -2.0071 1.5788 -3.4441 0.7570 0.0351 0.3254 -0.5035 -0.3001 -3.1638 1.3193 -2.8151 4.2951 1.3417 -3.1827 2.8932 0.8184 -1.6250 4.6703 0.8429 -2.3418 1.9721 -0.6075 -0.4727 -1.7464 0.4448 1.9281 -2.8864 0.3755 1.7709 -1.3821 -0.5922 1.0597 -3.5771 0.5178 0.2975 -1.0711 0.2957 -0.6994 3.6753 -0.1785 -0.1077 1.3210 0.3097 -1.0440 2.3709
2.4756 -1.8309 1.3646 -2.1130 -0.9151 -3.2970 -1.7787 2.6426 0.3246 1.0415 0.4517 -3.8729 2.3699 0.7830 -1.3502 -0.5356 -1.0489 -0.2349 -1.8829 0.3797 -3.8278 0.4071 0.8898 0.6613 -1.7173 1.3535 -1.6465 0.5322 -2.1773 4.5334 -0.7029 -1.4821 4.2214 1.5082 -2.2678 3.6120 -0.8777 -0.9326 3.0064 -1.0352 2.2904 -0.8268 0.3420 0.5665 -2.6459 1.1464 1.4074 -1.6809 -1.0244 1.1899 -2.8797 0.3567 1.8104 -0.4518 1.3300 -1.6708 2.2973 -0.0235 -0.4160 0.6802 0.1814 -1.0236 2.0131
0.1796 -3.1688 1.9427 1.3402 1.5417 -3.0605 -1.0321 2.5317 0.3371 -0.9773 -0.3739 -4.3421 -1.5027 -1.7092 -1.8538 1.5891 -0.5104 -0.0419 0.2715 2.1277 -3.7826 -0.6646 -0.2702 0.4972 -1.3467 2.4136 -1.9750 1.3668 -1.2421 4.9106 1.6052 0.0758 4.3542 0.8951 -2.2279 4.1316 1.3630 0.3117 3.0529 -0.7191 1.8074 -0.8467 -1.4299 0.2788 -3.1699 -0.8928 -0.4314 -1.9494 -1.0645 1.7448 -3.1902 -1.1869 0.3667 -0.6928 0.6593 -1.9939 2.7150 0.6639 -0.5059 0.7615 0.8829 -0.7662 2.2023
0.3556 -3.3200 2.3518 0.9240 2.6191 -4.5204 -0.5396 2.3633 0.4426 -1.2046 -0.3253 -4.3100 -2.0890 -1.5430 -1.8615 1.3809 -1.1122 -0.0396 0.7110 1.6400 -3.5135 -0.7921 -0.4849 0.5065 -0.9001 2.3801 -1.8619 1.4113 -0.8598 4.9558 1.4824 0.3792 4.2032 1.0473 -2.0007 4.3436 1.1873 0.3891 2.8912 -0.4184 1.6152 -0.7590 -1.4777 0.3867 -3.1156 -1.1514 -0.4783 -1.9183 -0.7424 1.7102 -3.1019 -1.2067 0.3179 -0.6281 0.7257 -1.9990 2.9243 0.5125 -0.8344 0.7779 0.7841 -0.8433 2.2327
-0.5198 1.2719 2.8453 -1.4805 3.6265 -3.1487 -1.5315 -2.1683 -1.8656 0.1746 2.0267 -0.6892 1.6483 0.1870 -3.4157 -1.4324 -0.5033 0.6803 -1.9880 2.4771 -2.4918 0.6271 -1.1184 -0.2110 -1.6474 0.1802 -2.0744 1.7003 -1.1545 4.6065 1.8140 -2.2325 3.6419 0.9287 -0.0882 4.3314 1.1566 -2.1614 2.4705 -0.8667 -0.9873 -2.2712 0.3320 1.6027 -2.0339 1.2363 0.3834 -2.0673 -1.0275 1.3185 -2.6679 0.5056 -0.8722 -1.6316 0.2539 0.0187 3.0473 -0.2580 -0.8309 0.8019 0.3744 -0.9755 2.1431
2.6871 -0.6059 1.1652 -0.1000 2.8590 -4.7805 -3.0069 1.1057 -0.1811 1.3485 0.9283 -1.6796 -1.0608 -1.3559 -3.1008 -0.2073 -2.5952 0.6364 0.0096 2.8484 -3.3660 -0.6076 -0.3197 0.3438 -1.3416 1.9051 -1.6459 1.7085 -0.5853 4.7664 0.3104 -0.9711 4.7121 2.4199 -0.4650 3.6314 -0.2789 -1.2045 3.5261 -2.1361 0.7942 -1.2532 0.3654 0.4861 -2.6046 -0.3170 -0.7525 -2.0499 -0.6513 1.5916 -2.8516 -1.2893 -0.4279 -0.9249 1.7942 -0.7322 2.3459 -0.1379 -1.4300 1.0108 0.4912 -1.0732 2.3000
0.7834 -3.2841 2.0461 -1.9185 3.0738 -4.3193 0.0338 2.5542 0.1384 -1.1482 -0.6929 -4.1622 0.8212 -1.5611 -2.2896 2.4334 -0.6495 0.7852 -0.9503 2.1571 -3.8396 0.2428 -0.2576 0.1049 -1.4755 1.7869 -1.5015 -0.0903 -1.2050 5.0218 0.0825 0.1463 4.5209 0.1172 -2.2581 4.2110 0.4627 0.3485 3.2469 -0.1152 1.8761 -1.0959 -1.0699 -0.1714 -2.8462 0.3638 -0.2250 -2.3654 -1.6038 1.2495 -2.8140 0.5741 0.5211 -1.0625 0.5346 -2.0479 2.8329 1.2315 -0.5698 1.0158 0.6906 -0.7911 2.3724

>  <OB_ATOM_TYPES> (2yhxA1)
C.3 O.3 O.3 O.3 O.3 O.2 C.3 N.am O.3 C.ar C.ar C.ar C.ar C.3 C.3 C.3 C.3 C.3 C.ar C.2 C.ar

>  <ENSEMBLE_RMSD> (2yhxA1)
0.548 0.842 0.953 0.955 1.005 1.007 1.102 1.155 1.194 1.251 1.286 1.305 1.334 1.355 1.388 1.395 1.445 1.461 1.480 1.499 1.514 1.536 1.568 1.651 1.660 1.702 1.734 1.736 1.741 1.760 1.767 1.812 1.816 1.820 1.835 1.857 1.914 1.919 1.974 2.019 2.057 2.061 2.063 2.070

$$$$
