
 OpenBabel03071213D

 12 12  0  0  0  0  0  0  0  0999 V2000
   40.1010   78.0450   89.5820 O   0  0  0  0  0
   35.4090   76.4340   86.5830 C   0  0  0  0  0
   36.7220   76.6530   84.0180 O   0  0  0  0  0
   37.7910   77.2600   87.8150 C   0  0  0  0  0
   37.3070   76.9220   85.2060 C   0  0  0  0  0
   37.3580   77.2820   92.1730 C   0  0  0  0  0
   36.3300   76.8650   91.3620 C   0  0  0  0  0
   38.6610   77.6980   91.6110 C   0  0  0  0  0
   36.4650   76.8840   90.0230 C   0  0  0  0  0
   36.8030   76.8580   86.7130 C   0  0  0  0  0
   38.8110   77.6480   90.0900 C   0  0  0  0  0
   37.6790   77.2420   89.3730 C   0  0  0  0  0
  1 11  1  0  0  0
  2 10  2  0  0  0
  3  5  2  0  0  0
  4 10  1  0  0  0
  4 12  1  0  0  0
  5 10  1  0  0  0
  6  7  2  0  0  0
  6  8  1  0  0  0
  7  9  1  0  0  0
  8 11  2  0  0  0
  9 12  2  0  0  0
 11 12  1  0  0  0
M  END
>  <MOLID> (3gchC1)
3gchC1

>  <SMILES_CANONICAL> (3gchC1)
O=CC(=C)Cc1ccccc1O	

>  <FINGERPRINT> (3gchC1)
0000000000000000000000000000000000000000000000000000000000001000001000000000000000000001000000000000000000000001000000100000000000000000000000000000000000000000000000001000000000000000000000000000011000000000000000000000000100000000000000000000011000000000000000010000010000001000000000000000000000011000000010000100000000001000000100000000000000000000010000000000000010010000010000000000010000000000100000000000001000000000000000000000000000000000000000000000000000000000000000000000000000000000001000000000100000000000000000000000000000000000000000100001000000000000000000000000000000000000000000000000100000000000000000100000000000000001000000000000000000000001000000000000100000000000000000100000000000000000000000000000000000000000000000000100000000000000000100000000000000000000000010000000000010000000000000000000000000000000000000000000000000000000000000000000000000000000000000000000000000000000000000000000000000000000000000000000001000000000000000100000010000000000000000000000000000000000000000000000010000000000

>  <MACCS166> (3gchC1)
000000000000000000000000000000000100000000000000010000000000000000000000000100000000000001000000001000000000000010000000000000100010000100110011010001010110101000111000

>  <OB_MW> (3gchC1)
162.068

>  <OB_logP> (3gchC1)
1.6898

>  <OB_PSA> (3gchC1)
37.3

>  <OB_MR> (3gchC1)
47.578

>  <OB_ATOMIC_CHARGES> (3gchC1)
-0.2868980295 -0.0008794066 -0.2834851015 0.0592120391 0.23023586 0.0032611003 -0.0001084789 0.0417059848 -0.0007752335 0.0244661451 0.1920336955 0.021231425

>  <MCT_HBD> (3gchC1)
1

>  <MCT_HBA> (3gchC1)
2

>  <ENSEMBLE_TOTAL> (3gchC1)
2

>  <ENSEMBLE_COORDS> (3gchC1)
2.6479 0.8958 0.8696 -2.0441 -0.7152 -2.1294 -0.7311 -0.4962 -4.6944 0.3379 0.1108 -0.8974 -0.1461 -0.2272 -3.5064 -0.0951 0.1328 3.4606 -1.1231 -0.2842 2.6496 1.2079 0.5488 2.8986 -0.9881 -0.2652 1.3106 -0.6501 -0.2912 -1.9994 1.3579 0.4988 1.3776 0.2259 0.0928 0.6606
2.0160 0.4487 -0.0903 -1.7536 -1.3970 -1.8157 0.7956 0.3669 -3.3792 -0.6951 0.6837 -0.9132 0.0523 -0.5363 -3.0265 0.3796 -0.0658 3.1839 -0.9158 0.0138 2.8307 1.4154 0.0789 2.1773 -1.2781 0.2508 1.4455 -0.7633 -0.5040 -1.8052 1.0738 0.2919 0.8947 -0.3269 0.3683 0.4981

>  <OB_ATOM_TYPES> (3gchC1)
O.3 C.2 O.2 C.3 C.2 C.ar C.ar C.ar C.ar C.2 C.ar C.ar

>  <ENSEMBLE_RMSD> (3gchC1)
0.000 0.968

$$$$
