
 OpenBabel03071213D

 48 47  0  0  0  0  0  0  0  0999 V2000
   -1.1660   34.2270   12.5960 C   0  0  0  0  0
   -0.5580   35.8460   10.7730 C   0  0  0  0  0
    8.0080   31.9470   16.9330 C   0  0  0  0  0
    6.2840   33.5640   17.6690 C   0  0  0  0  0
    0.4020   25.4700   19.6740 C   0  0  0  0  0
    1.2510   23.3880   20.7540 C   0  0  0  0  0
    0.5030   31.6630   14.6070 C   0  0  0  0  0
    0.1760   29.7940   16.3250 C   0  0  0  0  0
    4.2260   38.9650   11.8660 C   0  0  0  0  0
    5.8850   29.0650   20.3080 C   0  0  0  0  0
   -0.8030   38.3550   15.4410 O   0  0  0  0  0
    5.6070   32.7440   12.3630 O   0  0  0  0  0
   -0.7080   41.0620   16.3770 O   0  0  0  0  0
    6.2870   28.9460   17.8130 C   0  0  0  0  0
   -1.5070   42.3400   14.7190 O   0  0  0  0  0
    2.8250   35.7090   14.1540 O   0  0  0  0  0
    2.8980   27.5360   21.1540 O   0  0  0  0  0
    1.7580   38.9230   11.3560 O   0  0  0  0  0
    2.9260   33.0720   16.4570 O   0  0  0  0  0
    3.4300   28.0840   16.3520 O   0  0  0  0  0
   -1.2260   36.6870   13.0800 C   0  0  0  0  0
    6.5480   33.0030   15.1260 C   0  0  0  0  0
    2.8600   25.3270   20.0930 C   0  0  0  0  0
   -0.4120   40.3050   14.0930 C   0  0  0  0  0
    3.7370   34.1780   12.7080 C   0  0  0  0  0
    3.7630   36.6750   12.4300 N   0  0  0  0  0
    0.9420   37.8620   13.0910 N   0  0  0  0  0
    4.2550   32.0950   14.8200 N   0  0  0  0  0
    2.9420   30.1740   17.1360 N   0  0  0  0  0
    3.3910   27.2130   18.9640 N   0  0  0  0  0
   -0.5150   35.5650   12.3400 C   0  0  0  0  0
    6.6250   32.4210   16.5110 C   0  0  0  0  0
    1.4840   24.8890   20.5830 C   0  0  0  0  0
    0.9600   31.0600   15.9490 C   0  0  0  0  0
    3.3790   38.0640   12.7460 C   0  0  0  0  0
   -1.0400   38.9330   14.1640 C   0  0  0  0  0
    5.1420   33.8020   13.2200 C   0  0  0  0  0
   -0.5050   38.0040   13.0580 C   0  0  0  0  0
    5.1250   33.3130   14.6520 C   0  0  0  0  0
    2.4810   30.8530   15.9210 C   0  0  0  0  0
    3.8960   28.5530   18.6470 C   0  0  0  0  0
    5.3810   28.5990   18.9350 C   0  0  0  0  0
   -0.9000   41.2520   15.1680 C   0  0  0  0  0
    3.4140   35.6300   13.0990 C   0  0  0  0  0
    3.0270   26.8360   20.1710 C   0  0  0  0  0
    1.9250   38.3230   12.3910 C   0  0  0  0  0
    3.2560   32.1250   15.7040 C   0  0  0  0  0
    3.4620   28.9640   17.2340 C   0  0  0  0  0
  1 31  1  0  0  0
  2 31  1  0  0  0
  3 32  1  0  0  0
  4 32  1  0  0  0
  5 33  1  0  0  0
  6 33  1  0  0  0
  7 34  1  0  0  0
  8 34  1  0  0  0
  9 35  1  0  0  0
 10 42  1  0  0  0
 11 36  1  0  0  0
 12 37  1  0  0  0
 13 43  1  0  0  0
 14 42  2  0  0  0
 15 43  2  0  0  0
 16 44  2  0  0  0
 17 45  2  0  0  0
 18 46  2  0  0  0
 19 47  2  0  0  0
 20 48  2  0  0  0
 21 31  1  0  0  0
 21 38  1  0  0  0
 22 32  1  0  0  0
 22 39  1  0  0  0
 23 33  1  0  0  0
 23 45  1  0  0  0
 24 36  1  0  0  0
 24 43  1  0  0  0
 25 37  1  0  0  0
 25 44  1  0  0  0
 26 35  1  0  0  0
 26 44  1  0  0  0
 27 38  1  0  0  0
 27 46  1  0  0  0
 28 39  1  0  0  0
 28 47  1  0  0  0
 29 40  1  0  0  0
 29 48  1  0  0  0
 30 41  1  0  0  0
 30 45  1  0  0  0
 34 40  1  0  0  0
 35 46  1  0  0  0
 36 38  1  0  0  0
 37 39  1  0  0  0
 40 47  1  0  0  0
 41 42  1  0  0  0
 41 48  1  0  0  0
M  END
>  <MOLID> (4er2A1)
4er2A1

>  <SMILES_CANONICAL> (4er2A1)
CC(C[C@@H]([C@H](CC(=O)N[C@H](C(=O)N[C@H]([C@H](CC(=O)O)O)CC(C)C)C)O)NC(=O)[C@H](C(C)C)NC(=O)[C@H](C(=C)C)NC(=O)CC(C)C)C	

>  <FINGERPRINT> (4er2A1)
0000000000000011000000000000000000001001000000000111000000000000000000000001000000000000000000000000010000000000000001000000000000000000000110000000000010000000000000000000000000000000000000000000000000001000000000000000000000100000000000000000010000001000000000000010000000000000010000000000000000010000000000001000100000000000001000000000000000000000010000000000001100110000000000000001011000000000100000000000101000000000100000010010000000000001100000000001100000000000000000000000000000001000000000000000100000010000000000000000000000000000000000000000000000000001000000000000000111000000001000000000000000000000000000000000001000000001000000000000000000000000000000000011000000000100000011100001000000000011000000000000000010000011000000100001000000000000000110000000000000000000000000000000000100000000000000000000000000000000000000000000100000000000000000000001000000000000000000000000000000001000000000000000000000000000000000000000010000000000000000010010110000000010010000000000000000000010100000000010101000000000

>  <MACCS166> (4er2A1)
000000000000000000000000000000000100000000000000010011000000000000000000010100100000000011010010101000010001011000101000001000001011000100111100010010110111111110010000

>  <OB_MW> (4er2A1)
683.447

>  <OB_logP> (4er2A1)
3.3418

>  <OB_PSA> (4er2A1)
223.26

>  <OB_MR> (4er2A1)
184.182

>  <OB_ATOMIC_CHARGES> (4er2A1)
5.79561e-05 5.79561e-05 5.79561e-05 5.79561e-05 0.0005034415 0.0005034415 0.0022754275 0.0022754275 0.0333709477 0.0285824134 -0.2206987177 -0.2207731098 -0.2455593912 -0.0069578405 -0.2455593912 -0.2732407025 -0.2733212225 -0.2714871949 -0.271487199 -0.2711147323 0.0242891911 0.0242882116 0.0868332206 0.1485805497 0.1213934583 -0.1977052139 -0.203131514 -0.2031324965 -0.1960631962 -0.1935272265 0.0017908805 0.0017908765 0.0091372699 0.0289624351 0.172773954 0.1829985475 0.1808716919 0.1261580745 0.1260853671 0.1727000408 0.1910266471 -0.0156579099 0.3675066255 0.2444095844 0.2420496365 0.2612387141 0.2612377462 0.2655514124

>  <MCT_HBD> (4er2A1)
8

>  <MCT_HBA> (4er2A1)
14

>  <ENSEMBLE_TOTAL> (4er2A1)
47

>  <ENSEMBLE_COORDS> (4er2A1)
-5.1385 6.2700 -5.6114 -2.9139 6.0142 -6.6369 5.6452 -0.0828 -2.1934 5.8678 -1.0504 0.0647 -0.6206 -9.4072 6.7895 -2.1298 -9.3356 4.8440 0.7184 -5.8295 -1.0274 -1.3112 -4.6834 -0.2009 0.6192 4.1716 -3.2766 2.6568 -3.4941 5.3994 -2.2064 8.4543 -2.1040 0.4637 -0.3288 -2.2837 -4.6762 9.7338 -0.4348 4.2283 -5.0367 4.3395 -5.0756 9.7631 -2.6851 1.1850 3.1015 0.4927 0.6063 -7.7369 3.2355 -2.3282 4.2499 -1.1524 2.9521 -3.5860 -0.9192 0.5192 -3.2676 3.1601 -3.1131 6.9480 -4.3663 3.7365 -0.0197 -0.6226 -0.6150 -7.4421 5.2950 -4.4847 7.7024 -1.5790 0.6490 0.8873 -0.2430 -0.0909 2.8113 -1.4265 -1.6978 5.6061 -2.9115 2.0254 -1.6497 -0.0396 1.4419 -4.5024 1.4216 0.8905 -5.8028 4.4919 -3.6886 5.9489 -5.3434 4.9277 -0.8204 -1.0915 -0.7682 -8.9435 5.3623 0.1106 -4.4938 -0.6677 -0.0360 4.1695 -1.9118 -3.0448 7.3405 -1.8753 1.3975 0.2980 -1.4201 -2.9458 6.3248 -2.9969 2.4588 -0.7082 -1.0379 0.9011 -3.7000 0.3518 1.8884 -5.2106 3.6379 2.9728 -4.5943 4.4491 -4.7767 9.1676 -1.6614 0.6416 2.3844 -0.3409 0.3621 -7.0499 4.2219 -1.4791 4.6356 -1.9542 2.0735 -3.0063 -0.2896 1.2016 -4.2000 2.7481
-1.1196 4.7363 -5.9820 0.2650 6.3936 -4.7989 5.4361 1.6595 -1.8999 5.9340 0.7252 0.3264 -0.8712 -9.9578 4.9134 -2.7928 -8.8859 3.7982 -1.0366 -0.4263 1.7671 -1.2133 -2.4054 0.2759 -2.9621 2.7351 -0.2181 3.4629 -5.0023 5.3277 -4.2247 7.3162 -2.5660 1.8431 2.3437 -2.0549 -2.3471 8.7947 -0.4482 4.2497 -5.8055 3.1570 -0.8265 7.9838 -1.9429 -1.6382 -0.5411 -2.1756 -0.1661 -6.9316 2.2409 -4.0239 2.6175 -3.4872 1.8947 -2.3726 -0.5249 1.1798 -3.1243 4.2883 -2.1030 6.1216 -4.1831 3.6206 1.3270 -0.2615 -0.8471 -7.5253 4.4744 -2.5178 6.5309 -1.0099 0.5573 0.3894 -2.2866 -1.3606 1.7175 -1.7335 -2.4176 4.1138 -2.7527 1.9910 -0.2774 0.4652 1.2541 -3.3688 1.9795 0.9167 -5.9982 4.0714 -0.8611 5.4010 -4.6524 4.9217 0.7762 -0.7904 -1.2920 -8.8721 3.9550 -0.6135 -1.8569 1.5463 -2.7499 2.0467 -1.5453 -3.5214 6.1885 -2.0896 1.3368 1.2444 -1.3104 -2.9900 5.3458 -3.2285 2.4687 0.4449 -0.6917 0.8882 -2.0130 1.6516 1.8728 -5.2319 3.3110 3.2343 -5.3594 3.9011 -1.7992 7.8273 -1.2228 -0.9255 0.4497 -2.0421 -0.0050 -6.8172 3.4512 -3.1484 2.9464 -2.6899 1.6391 -1.6107 0.4020 1.4075 -3.7931 3.2854
-4.2302 2.5876 -4.1016 -4.1085 3.9674 -6.1443 5.9010 -1.6975 -1.1255 5.3197 -2.5037 1.1302 2.9822 -10.1611 3.9056 3.6927 -9.1277 1.7861 -1.3357 0.2960 1.7681 -0.5100 -0.6191 3.8954 0.8633 4.3665 -3.0320 -2.1753 -4.3708 4.7687 -3.7842 7.7432 -4.0572 3.0554 1.4000 -1.3721 -1.9726 10.0933 -2.9195 -0.5059 -5.4113 6.1932 -3.6073 9.6486 -1.3874 -0.8385 1.5582 -2.9329 2.7413 -6.1177 3.2402 -2.0060 4.3944 -0.6906 0.1450 -2.4028 -0.5712 -1.0818 -4.6710 1.8185 -4.1039 5.0493 -3.9166 4.0335 -0.6566 0.1107 1.6994 -8.2712 2.9614 -2.2170 7.8658 -2.2158 0.9419 0.4301 -1.8147 0.2980 2.7197 -1.2972 -1.8294 4.8732 -2.9407 1.8107 -1.3656 0.6654 0.3099 -2.9778 2.5739 0.4341 -6.3263 3.4231 -3.6603 3.8438 -4.7107 4.7711 -1.9465 -0.1597 3.0771 -8.8662 3.1386 -0.2672 -0.5636 2.4054 0.1329 4.0865 -1.7395 -2.6732 7.1064 -3.4499 2.0358 0.6047 -0.7800 -3.0233 5.6810 -3.0533 2.6007 -0.7567 -0.3835 -0.2586 -1.9350 1.7505 0.1763 -4.9752 3.8683 -0.8388 -4.9958 4.9668 -2.6982 9.2800 -2.1162 0.0477 1.6187 -2.0816 1.7178 -6.7928 3.2268 -1.3411 4.4493 -1.7242 0.5671 -1.9301 0.4809 -0.2875 -4.2219 2.6401
-3.4745 3.3068 1.3676 -5.5411 4.5394 0.8540 6.8321 1.0359 -1.4457 6.7529 0.0495 0.8067 -2.2734 -9.6823 3.9168 -3.7772 -8.0794 2.8128 -0.1658 0.0741 1.4351 -0.6600 -1.7385 -0.1810 -2.2676 2.0080 -2.1314 3.0169 -5.3698 4.8763 -4.9199 6.4039 -1.7998 2.2889 2.4280 0.0555 -4.1946 7.5796 -5.2074 3.6661 -6.4954 2.8049 -3.4245 5.4322 -5.1963 1.2474 2.1653 -4.2615 -0.7477 -6.6846 1.5340 -0.7162 5.0420 -3.3637 2.3525 -2.3028 -0.7990 0.9522 -3.2771 3.8820 -3.3513 5.5066 0.2439 4.7426 1.1176 -0.1350 -1.6051 -7.3153 3.6983 -3.1348 6.8556 -3.2600 2.5298 1.9704 -2.2625 0.1399 2.3304 -2.2367 -1.7387 4.6135 -1.3360 3.0520 -0.5079 0.4904 1.3692 -3.3408 1.5996 0.3717 -6.0355 3.4633 -4.1455 4.2248 0.3762 5.9662 0.2949 -0.4576 -2.3339 -8.4602 3.0345 -0.0617 -1.4050 1.1625 -1.1268 2.7636 -2.7704 -3.6945 5.8578 -2.2683 2.3526 1.3709 -0.8887 -2.7094 5.6680 -1.1223 3.4721 0.4040 -0.5506 1.3481 -1.9152 1.3715 1.4804 -5.3856 2.8061 2.7614 -5.7679 3.4652 -3.5902 6.5076 -4.6417 1.2469 2.1431 -3.0327 -0.6271 -6.6721 2.7542 -1.1874 4.2563 -2.5437 2.2839 -1.6231 0.2202 1.2431 -3.8912 2.8603
-0.3587 5.0716 -6.0511 1.3958 5.9116 -4.5400 4.2944 2.1645 -0.9508 5.1221 -0.0886 -0.3938 -0.5864 -9.2150 7.2431 -2.2084 -9.2893 5.3914 0.3467 -5.9164 -0.7090 -0.0347 -3.9230 -2.0921 -3.3619 3.3428 -0.4986 3.9090 -4.3954 3.6247 -1.2215 8.5843 -2.3126 1.0993 2.1137 -1.5349 -2.3275 8.9786 0.7108 2.5311 -4.3370 5.6304 -3.9845 9.2447 -0.8391 -2.1223 0.9134 -3.7723 0.4421 -7.9192 3.4821 -3.8726 4.4547 -3.5858 3.0075 -2.6167 -0.3410 0.1419 -3.2944 2.9940 -0.9470 6.6047 -4.2194 2.7417 0.4872 -0.0327 -0.6377 -7.3986 5.5827 -2.6248 7.2535 -0.8386 -0.3148 0.3665 -2.3157 -1.7447 2.2946 -1.9617 -1.8552 4.9811 -2.5809 1.1100 -1.2815 -0.1548 1.4672 -4.2564 1.3419 0.4450 -5.7468 4.3019 -0.0440 5.4656 -4.6292 3.9474 0.6976 -0.9175 -0.8103 -8.8834 5.7884 0.8479 -4.5279 -1.0239 -3.0218 2.9618 -1.9192 -1.4755 7.2730 -1.8333 0.5119 0.8740 -1.1500 -1.8103 6.3593 -2.9964 1.6211 -0.1239 -0.8492 0.8754 -3.6163 0.1909 1.5224 -5.2240 3.4999 2.6200 -4.6375 4.3311 -3.0671 8.5979 -0.3575 -1.4915 1.2061 -2.7581 0.1509 -7.0937 4.3399 -2.9746 4.2017 -2.7847 1.8081 -2.4737 -0.1228 0.9388 -4.1459 2.6139
1.3335 5.7860 -0.6282 -0.3092 6.8073 0.8955 4.4797 1.5668 0.1555 4.0757 -0.0587 1.9629 -1.1942 -7.6520 7.2906 -0.7897 -9.6918 5.9749 0.5119 -4.0390 -2.8633 2.4247 -5.2467 -1.8524 -3.5003 3.1784 -3.0406 1.4079 -3.1879 4.5859 -2.7067 8.4852 -2.9448 1.5058 2.0319 -1.9196 -3.3772 7.9606 0.2517 3.1654 -4.8553 4.2619 -5.2744 8.3577 -0.9511 -0.6506 0.9399 -4.9345 0.3849 -8.0178 3.1304 -0.8754 4.6811 -4.8808 3.0878 -2.6050 -0.5451 -0.5204 -3.6792 2.0490 -0.5447 7.1086 -1.5429 2.2474 0.5369 0.4248 -1.2369 -7.5483 4.8311 -3.7166 6.6541 -1.6605 0.2245 0.2305 -2.8313 -1.3286 2.0782 -3.0354 -1.3911 5.0559 -2.6586 1.1186 -1.3666 -0.5506 1.2993 -4.4167 0.8122 -0.0202 -5.8176 3.7632 -0.1194 6.1551 -0.4506 3.7363 0.3128 0.5420 -0.5796 -8.1978 6.0257 1.0493 -4.6746 -1.6056 -2.1647 3.0284 -3.7252 -2.7722 7.0854 -2.7638 0.7791 0.8592 -1.5673 -1.3817 6.4965 -2.6497 1.7305 -0.0913 -0.8540 0.9585 -3.7397 -0.4164 1.0732 -5.2210 3.0364 1.9315 -4.4362 3.9692 -4.2236 7.7569 -0.7847 -0.6106 1.1208 -3.7188 -0.1888 -7.1844 3.8233 -1.4140 4.3351 -3.8313 1.8629 -2.5337 -0.5171 0.5022 -4.3481 1.9379
-0.0301 7.1860 -5.6385 1.4309 6.0560 -4.0145 4.9790 -0.8269 -3.5676 5.8573 -1.3170 -1.3218 -1.7197 -7.7239 5.5847 -2.6277 -8.5066 3.4319 0.1457 0.3155 2.4041 -1.2151 -1.5755 1.5533 -1.8556 3.4013 0.2176 2.5929 -4.7339 6.1239 -3.7788 7.0244 -4.2291 1.8592 1.2304 -3.0491 -4.9905 8.1633 -0.6015 3.8812 -6.3797 4.8431 -4.7008 5.9035 -0.4736 -2.1591 -0.2433 -1.4843 0.4240 -6.7108 1.9719 -3.5618 3.1206 -2.8936 1.1210 -2.8129 -0.2916 3.4298 -3.0731 3.3922 -0.9117 6.5252 -3.4364 3.7839 -0.0172 -1.5683 -1.3551 -6.3966 3.5423 -3.2889 7.2555 -1.9037 0.0680 -0.1240 -2.3352 -1.0735 1.8034 -1.4424 -1.8240 4.5582 -2.3543 2.1165 -0.7379 0.0022 1.3470 -3.2068 2.4046 0.7669 -5.4028 3.8672 0.0237 6.1369 -4.5548 4.6043 -1.1456 -2.1422 -1.4771 -7.7948 4.0982 -0.0017 -1.1848 2.3618 -2.2019 2.5847 -1.0046 -3.3897 6.3016 -3.0730 1.3522 0.5545 -1.9067 -2.0865 5.5730 -3.3517 2.3506 -0.4687 -1.3967 1.2873 -1.8492 1.9274 2.1627 -5.1250 3.6222 2.9336 -5.4391 4.8585 -4.3916 6.9933 -0.9294 -1.1669 0.4518 -1.6909 0.0365 -6.2123 3.0231 -2.6128 3.4399 -2.1802 1.4820 -1.8869 0.4280 2.3845 -3.6840 3.1774
-4.7504 4.6567 -6.7174 -2.3721 4.0207 -6.7884 5.4529 -1.0120 1.2156 3.7964 -2.1579 2.6422 4.3084 -8.5918 5.5265 5.2626 -6.3260 5.3569 -2.9047 -3.0456 0.4042 -1.6900 -1.7828 2.1506 0.5548 4.3220 -2.9041 -1.3773 -7.9840 1.9857 -4.1433 7.3068 -2.1919 1.2774 0.6194 -1.8881 -2.4246 10.0893 -1.9306 -2.2403 -6.5895 3.7994 -1.3038 8.2968 -1.0725 1.5221 3.7883 0.4338 1.9680 -5.1902 4.7528 -2.7058 4.6860 -1.2973 1.3505 -2.9653 -1.1160 0.4757 -5.9802 0.5117 -3.1000 5.9072 -5.3813 3.0940 -0.2808 1.2003 3.3603 -6.9680 3.9226 -2.1728 8.2296 -3.3261 0.6621 1.5596 0.2226 -0.3575 3.3866 -0.8749 -1.8921 5.3964 -3.3405 1.0175 -1.2819 0.4386 0.0588 -3.9647 1.5805 1.1076 -6.7136 3.2273 -3.4814 4.5454 -5.9095 4.0196 -1.4686 1.3191 3.9925 -7.1372 5.2849 -1.6251 -2.3223 0.7411 -0.3288 4.5716 -1.7000 -3.4024 7.3448 -3.3944 1.7431 0.8529 -0.5676 -3.1255 5.9317 -3.8682 2.1452 -0.4757 0.0413 -0.4329 -3.2113 0.4582 -0.0655 -5.9527 2.8742 -1.2753 -6.8196 2.9053 -1.9130 8.8365 -1.9825 0.6922 3.0311 -0.0564 2.0851 -6.1838 4.0435 -1.7717 4.8525 -2.0795 0.7348 -2.4868 -0.1657 0.1751 -5.3399 1.5142
-4.0583 5.9680 1.2429 -3.6463 3.5498 1.5046 6.4664 -0.6890 0.6321 5.0228 -1.7722 2.3137 1.4966 -10.1905 3.3422 3.6250 -9.1264 3.9779 -2.3774 -0.9477 0.7488 -0.6178 -0.4289 2.4056 -1.0689 2.6290 -4.3952 -2.7944 -5.7863 2.4902 -4.7446 6.6194 -2.2637 3.1179 2.3517 -0.1018 -3.2572 9.0682 -4.3032 -2.0841 -4.3778 4.3613 -3.2976 7.1663 -5.5600 2.7595 3.1928 -3.4177 1.7421 -6.0717 4.3023 -0.0631 4.9721 -1.7330 1.3506 -2.0125 -1.4099 -0.6767 -4.8346 0.2983 -3.8670 4.5195 -0.7534 4.1471 0.0957 0.9570 1.9454 -7.8479 2.6959 -2.6316 7.0874 -3.2348 2.6788 1.1717 -2.1463 0.6940 2.3553 -2.7582 -2.1100 4.1038 -2.3529 1.9780 -0.8742 0.5139 0.1586 -2.9953 1.4387 0.1894 -6.2612 2.5843 -3.3703 4.7621 0.6516 5.0557 -1.1092 0.9581 2.1487 -8.8976 3.7621 -0.8949 -0.7832 0.9648 -0.0985 3.3255 -3.4727 -3.5875 5.9936 -2.8008 2.4908 1.2044 -0.6443 -2.9083 5.1399 -1.7441 3.0390 -0.0845 -0.0571 -0.1487 -1.9957 0.4484 -0.3702 -4.9361 2.7004 -1.7634 -5.0060 3.2268 -3.1042 7.7361 -4.4980 2.0714 2.3618 -2.8333 1.3033 -6.6368 3.3057 -0.7381 4.2102 -2.4242 1.1298 -1.6368 -0.2614 -0.3318 -4.2823 1.3381
-0.4988 5.3438 -5.8628 -1.9211 7.3482 -5.9463 6.3102 -1.8918 -2.2133 6.0897 -2.7464 0.0708 2.1915 -8.0343 5.9176 0.8709 -6.6838 7.4729 -0.2365 -0.8649 3.2433 1.9810 -1.9295 3.4572 0.6543 5.4531 -2.2170 0.0685 -6.9645 0.3040 -3.8261 7.2687 -3.3205 3.3989 1.0866 -2.4434 -6.9517 6.6339 -1.9185 -2.0604 -7.4878 1.3994 -5.3805 7.4648 -0.4865 1.1999 2.5833 0.5672 -0.7542 -4.7548 4.9999 -2.2120 4.2608 -0.5248 1.4015 -2.7885 -0.9034 -1.5881 -3.8344 0.6673 -2.7605 5.2977 -4.8601 4.8082 -0.7536 -0.6111 1.3805 -5.8168 5.2278 -4.8658 5.5968 -1.9433 1.3986 0.9308 -1.1691 0.5669 3.0976 -1.6118 -1.8690 4.2826 -2.8135 2.6174 -1.2246 0.2791 0.4804 -3.5613 1.6486 0.2354 -5.7595 3.1503 -1.5362 6.1478 -5.1183 5.3507 -2.0882 -1.0669 1.0460 -7.0584 6.0220 0.9991 -1.3025 2.4948 0.0313 4.4041 -1.3291 -3.5719 6.1093 -2.5455 2.9043 0.7514 -1.1523 -2.9810 4.9969 -3.3933 3.3157 -0.6786 -0.8575 0.6391 -2.1727 1.3029 -0.8469 -5.5192 2.2235 -0.9927 -6.6905 1.3111 -5.7203 6.6758 -1.3540 1.0534 2.2808 -0.6123 0.1611 -5.3788 4.4736 -1.4662 4.3260 -1.4992 1.5873 -2.1250 0.1168 -0.7020 -4.2306 1.4239
1.4787 5.4616 0.1492 0.3880 4.0502 1.8498 6.8850 0.5578 -2.2447 6.5384 0.0273 0.1398 -3.0081 -8.2856 5.0068 -4.2788 -7.0087 3.3257 -0.4557 0.4452 -0.1567 -0.9222 -1.8781 -0.9105 -2.4450 1.9703 -3.7313 2.9448 -5.3936 3.7896 -3.6622 5.1641 0.6556 3.3031 1.8197 -3.4334 -6.2144 5.7953 -1.6107 2.1402 -3.5741 5.2031 -6.2500 3.7256 -0.6510 0.1773 0.4069 -5.1621 -1.1154 -6.0622 2.1520 -0.9118 4.9914 -3.6524 2.2342 -2.3413 -1.2147 0.2571 -1.8462 3.3554 -0.9812 5.3109 0.2305 4.6950 0.9948 -1.1898 -2.2168 -6.0524 4.3000 -4.2096 4.6061 -1.6205 1.6791 0.0876 -3.3348 -0.0651 1.7408 -3.2791 -1.2441 3.7889 -1.7038 2.7536 -0.2162 -0.4404 1.0285 -2.6804 1.3313 -0.4165 -4.5896 3.8010 0.3089 4.5530 0.4312 5.8902 0.0716 -1.2211 -2.9000 -7.3237 3.8510 -0.3669 -1.0179 0.1968 -1.0805 2.6114 -3.8134 -3.2481 4.3998 -0.4655 2.5449 1.0348 -2.5261 -1.8586 4.8249 -0.9093 3.4609 0.2325 -1.6170 1.0204 -1.4073 0.6560 0.8167 -4.1942 3.1617 1.9603 -4.3270 4.1126 -5.6516 4.6270 -1.2165 0.5368 0.7643 -4.0431 -1.2001 -5.6027 3.2857 -1.0622 3.9228 -3.0637 2.0598 -1.4109 -0.4354 0.6629 -2.7744 2.6619
-0.7378 6.9505 -5.6745 1.0016 5.5802 -4.5939 4.3661 -1.5551 -4.1081 5.6468 -2.0531 -2.0613 -2.6921 -7.6097 4.7724 -3.2073 -6.5240 2.6184 0.9089 0.3257 2.5537 -0.7832 -1.4157 2.0737 -0.8932 3.6154 0.6695 3.3866 -4.8660 5.9977 -3.0051 8.0474 -2.7654 1.6596 0.8444 -3.1412 -5.8129 7.2994 -0.8861 4.2742 -6.7051 4.6437 -6.2649 7.6504 -3.0949 -2.2026 0.0949 -0.9319 0.4044 -6.7332 2.2546 -3.2409 3.2901 -2.0972 1.0480 -2.9868 -0.0885 3.9248 -3.4443 3.0642 -0.8280 6.5316 -3.2399 3.6997 -0.5482 -1.9519 -1.1784 -5.8833 3.8626 -4.4748 6.1736 -2.4529 -0.0861 -0.2253 -1.9815 -0.7658 1.9050 -1.0537 -1.6306 4.8946 -1.6606 2.2849 -1.0242 -0.0710 1.6786 -3.3233 2.5515 1.1464 -5.4931 4.0727 -0.4611 5.9474 -4.5827 4.2734 -1.7753 -2.6184 -2.1010 -7.0268 3.5132 0.5923 -1.1468 2.6336 -1.6416 2.8326 -0.3818 -3.1120 6.7713 -2.1522 1.3274 0.3039 -1.8691 -2.0459 5.8249 -2.6855 2.2814 -0.8198 -1.5009 1.6958 -1.9835 2.0209 2.5115 -5.3320 3.6225 3.4262 -5.6784 4.7499 -5.6021 7.1267 -2.2116 -1.1215 0.5886 -1.2471 0.1923 -6.1154 3.2923 -2.2591 3.6829 -1.4682 1.6237 -2.0855 0.5135 2.7935 -3.9276 3.0913
-5.1275 4.7069 -6.1081 -4.9035 7.1483 -5.9654 5.3381 2.5523 -0.5995 5.5994 1.5749 1.6521 -0.8229 -10.4900 4.0546 -2.5645 -9.0900 3.0066 -0.8111 -0.4569 2.3090 -1.0098 -2.2311 0.5864 -3.4047 0.8644 -1.1679 3.5898 -5.2540 5.2520 -2.1110 7.3183 -3.5993 0.5829 2.4459 0.8128 1.1851 6.0988 -3.2821 4.4554 -6.0064 3.0932 0.3546 7.3498 -1.5648 -0.1554 1.7341 -3.5087 0.2989 -7.2673 1.8287 -3.7735 3.6485 -0.9428 2.1000 -1.9625 -0.2027 1.0418 -3.6283 4.3806 -4.4985 5.7798 -3.9718 3.3446 1.9775 0.7304 -0.5431 -8.0374 3.9560 -0.9479 5.5422 -2.4775 1.0633 2.1985 -1.5044 -1.3293 2.0426 -1.5316 -3.2456 3.8364 -3.1935 2.2315 -0.1180 1.1994 1.4664 -3.4266 2.1062 1.1604 -6.4043 3.8025 -4.3479 5.8333 -5.4732 4.7615 1.5801 0.3976 -1.0818 -9.2503 3.2359 -0.4089 -1.8573 1.9184 -2.6535 1.8272 -2.0599 -1.9452 5.9067 -3.5653 1.0284 1.5114 -0.1573 -3.2835 5.2737 -3.2296 2.3774 0.9316 0.2179 1.0915 -2.0380 1.9997 2.0651 -5.4678 3.1796 3.4141 -5.5698 3.8074 0.2355 6.4522 -2.3859 -0.1900 1.9408 -2.2990 0.3412 -7.2234 3.0533 -3.2950 3.1856 -1.9745 1.8518 -1.4015 0.8592 1.4753 -4.0810 3.3252
-3.5744 3.8520 0.8113 -5.4804 3.9789 -0.7459 4.2553 -0.1111 3.6787 1.8111 -0.0697 3.9501 3.3543 -9.1334 5.4209 4.8823 -7.3419 4.7052 -2.3414 -2.3309 -0.9990 -1.7237 -1.4791 1.2424 -0.9654 2.8839 -4.1561 -1.3833 -8.1101 1.9261 -4.0664 7.6242 -2.7291 0.7301 1.7582 0.4011 -2.9742 8.5680 -5.5855 -2.5814 -6.0158 1.6535 -1.8241 9.6767 -3.9545 2.8834 3.2126 -3.0193 1.8609 -5.5304 4.1195 0.1636 5.2073 -1.5169 2.0614 -2.4219 -1.1731 0.6605 -5.5973 -0.2213 -3.6620 5.6453 -0.8805 2.8187 0.5997 1.8023 2.7521 -7.6931 3.5128 -1.9779 7.2721 -3.9028 2.6053 1.8737 -1.0677 0.7372 2.5630 -2.4670 -1.9208 4.6671 -2.3480 1.5106 -1.2049 0.7198 0.0013 -3.7191 0.9738 0.9681 -6.7072 2.3278 -3.9967 4.2006 -0.5945 2.9373 -0.3375 2.9803 3.4337 -7.7357 4.8592 -1.2119 -1.8337 -0.1328 0.0431 3.5561 -3.2546 -3.1391 6.6370 -3.1546 1.6148 0.9659 -0.3768 -2.6075 5.8746 -1.9502 2.3361 -0.0389 0.5085 -0.0614 -2.8183 -0.1481 -0.1519 -5.8351 2.0546 -1.4039 -6.6245 1.8194 -2.2428 8.6407 -4.4486 2.1016 2.6078 -2.2871 1.8204 -6.5182 3.3951 -0.5497 4.5508 -2.2751 1.2772 -2.1347 -0.2716 0.2197 -5.0736 0.7982
-2.5636 6.2916 1.5930 -1.0315 4.4556 2.1700 6.2294 -1.2874 -0.2056 4.9918 -2.4880 1.5615 1.5767 -9.1462 4.1299 3.5276 -8.6376 2.7127 -2.5774 -0.3798 0.8377 -0.6524 0.1618 2.2953 -1.3465 2.6124 -4.6602 -3.0322 -5.2975 3.4585 -4.5174 5.5664 -0.9396 4.1347 1.5878 -1.2483 -4.1210 5.8890 -4.8079 -2.0651 -3.6425 4.9731 -5.2734 7.5282 -3.7137 2.7108 2.7090 -3.8343 2.1102 -5.1511 3.0054 0.3682 4.9575 -2.5221 0.9343 -2.1777 -1.3366 -1.5612 -4.2847 0.8449 -2.3494 4.3339 0.0944 4.0478 -0.4316 0.5697 1.4327 -7.3759 2.4113 -3.3042 6.5633 -2.7180 2.4433 0.6581 -2.6346 0.5712 1.9648 -3.3083 -1.6146 3.8253 -2.1512 1.6746 -0.6172 0.2085 -0.1960 -2.5672 1.5992 -0.1489 -5.6918 2.9128 -1.6149 5.2589 1.0361 4.8624 -1.6736 0.3003 2.3319 -8.0503 3.4201 -1.0732 -0.3270 0.9284 -0.1229 3.0743 -3.9101 -3.5450 5.2914 -1.9361 2.8612 0.9592 -1.2088 -2.2302 4.8394 -1.3265 2.9305 -0.3487 -0.4424 -0.4772 -1.6575 0.5212 -0.6583 -4.3543 3.0948 -1.9289 -4.3884 3.8760 -4.3517 6.7253 -3.7688 1.9487 1.8983 -3.3164 1.2014 -5.9534 2.8200 -0.4215 4.0591 -2.8024 0.7754 -1.5233 -0.3065 -0.8860 -3.7578 1.7237
-0.6977 7.1954 -6.3472 1.1409 5.8513 -5.4109 5.3095 1.5837 0.8769 4.7628 0.2481 2.8739 2.3458 -8.1595 6.0015 1.1848 -6.3752 7.2410 -1.3761 -2.1818 3.2102 0.9756 -2.6176 3.8728 -2.9452 2.6947 -0.9803 1.6392 -6.6534 -0.3597 -3.5238 7.6663 -3.8044 2.5866 2.5857 -0.8942 -3.4279 6.2967 0.1347 -0.3333 -8.0952 -0.2301 -4.1218 8.4023 -0.4070 -0.7285 -0.2086 -2.4589 -0.9388 -6.3932 4.1930 -2.7758 3.0417 -4.4314 2.5901 -2.3929 0.5689 -1.5231 -4.5172 0.4464 -0.7954 6.4237 -4.0049 2.9558 1.0035 1.3760 1.3861 -6.2315 4.7899 -2.4195 7.3139 -1.7181 1.2979 1.0044 -2.0784 -0.8299 2.0656 -1.9930 -1.8639 4.5422 -2.9168 1.2506 -0.5025 0.5586 0.5331 -3.9476 1.3337 0.6908 -6.3989 2.5366 -0.3518 6.0704 -5.4032 4.3884 0.5300 1.4406 1.2074 -7.1707 5.9591 0.0722 -2.0200 2.8225 -2.2354 2.2568 -2.2398 -3.0592 6.6573 -2.9229 1.6631 1.5247 -0.7032 -2.1073 5.7457 -3.6713 2.2769 0.4304 0.1480 0.3209 -2.5218 1.4126 -0.1934 -6.2694 1.4046 0.3392 -7.0455 0.2492 -3.4250 7.4219 -0.6186 -0.1925 0.8629 -2.1959 0.2338 -6.3647 3.8369 -2.3356 3.3095 -3.3160 1.5244 -1.8332 0.8083 -0.4752 -4.8283 1.0103
-5.8141 6.3467 -2.0065 -5.7250 3.9480 -2.5706 5.2367 0.3631 2.3820 3.7025 -1.1679 3.5496 4.1115 -9.0464 5.0433 5.4814 -7.6241 3.5728 -2.7526 -2.5953 -0.0349 -1.6543 -1.4662 1.8684 -1.1722 1.9992 -2.5053 -2.0310 -7.6150 2.3775 -1.0219 7.6474 -3.3788 1.7830 -0.1180 -1.8817 -3.5154 9.7386 -2.6323 -2.1487 -6.1168 4.3056 -2.2533 10.3273 -4.4421 2.6859 3.6825 -2.1160 2.5691 -5.4848 3.6629 -1.0805 4.9924 -0.9690 1.7175 -3.0787 -0.7767 -0.1903 -5.9528 0.4557 -4.0684 5.4956 -3.5418 2.8848 0.1872 1.6537 3.0523 -7.7980 3.1936 -3.2263 8.1241 -4.3004 2.6595 1.7507 -0.7097 0.6577 2.9783 -1.2651 -1.7746 4.8341 -3.1741 1.3297 -1.4298 0.8024 -0.2289 -3.9199 1.5785 0.8869 -6.8944 2.8978 -4.9019 5.1867 -2.3208 4.0657 -0.5720 2.2114 4.1375 -7.7678 4.2438 -1.4492 -2.0435 0.4866 -0.2522 3.1910 -2.3657 -2.1647 7.0820 -4.0012 1.8030 0.5054 -0.6034 -2.6859 5.9555 -3.1285 2.3575 -0.4916 0.4043 -0.3645 -3.0980 0.4038 -0.1651 -5.9066 2.8783 -1.4694 -6.5348 3.2336 -2.9180 9.5087 -3.8254 2.0158 2.8860 -1.4630 2.1699 -6.5872 3.3032 -1.0720 4.4242 -2.0570 1.0001 -2.5461 0.0670 -0.2074 -5.2989 1.4940
-0.2046 7.3131 -5.1323 1.2306 5.9650 -3.6522 4.4848 -0.9063 -3.9209 5.6245 -1.5888 -1.8452 -1.5493 -7.8518 5.6299 -2.7981 -8.4143 3.5807 0.5671 0.2315 2.6881 -1.0398 -1.5020 1.9443 -1.3872 3.7394 0.9008 3.0611 -5.2192 5.7566 -3.0137 8.2893 -1.9078 1.6552 1.3451 -2.8946 -5.1315 7.6398 -4.0664 4.0009 -6.9018 4.2473 -4.7381 5.4000 -4.2414 -2.2476 0.1755 -0.8673 0.1870 -6.7461 1.8124 -3.3785 3.4974 -2.0951 0.9201 -2.7693 -0.2703 3.6625 -3.4851 3.0199 -0.8810 6.8951 -2.7961 3.6423 -0.1290 -1.7347 -1.3434 -6.4239 3.6270 -4.5782 6.4938 -2.0948 -0.1398 0.1299 -1.9844 -0.9410 2.0879 -0.8251 -1.6770 4.9793 -1.5677 2.1314 -0.8104 0.0037 1.4603 -3.3737 2.3384 0.8823 -5.6185 3.7257 -0.1951 6.3095 -4.0064 4.2885 -1.2766 -2.4718 -1.5125 -7.8406 4.1219 0.2974 -1.2499 2.5979 -1.9426 2.9582 -0.2656 -3.1680 6.8961 -1.7170 1.2502 0.6657 -1.7139 -2.0954 6.0750 -2.4146 2.2065 -0.4712 -1.3985 1.4587 -1.9827 1.9582 2.2576 -5.4370 3.3215 3.1458 -5.8927 4.4316 -4.8005 6.4224 -3.5754 -1.2154 0.7783 -1.1529 -0.0176 -6.3067 2.9389 -2.4196 3.8306 -1.4016 1.4545 -1.9286 0.4463 2.5460 -3.9915 2.9235
-2.7397 6.0888 1.8523 -1.5989 3.9407 2.2453 6.3275 -1.4981 -0.3138 5.0387 -2.4377 1.5633 1.5246 -9.4210 3.9405 3.4246 -8.7700 2.5134 -2.3749 -0.1421 1.0571 -0.3421 0.1516 2.4372 -1.2936 2.8707 -4.5519 -3.0834 -5.1026 3.4055 -4.5614 5.9369 -1.1985 3.8936 1.8070 -1.0189 -4.6631 7.7338 -4.1912 -1.9114 -3.6728 5.0053 -4.1985 5.6517 -5.0030 2.7237 2.8714 -3.7279 2.0665 -5.3789 3.1678 0.2934 5.1530 -2.2880 0.8240 -2.0676 -1.4035 -1.5273 -4.2359 0.7931 -2.7801 4.3244 0.1149 4.2134 -0.4378 0.3924 1.3050 -7.5182 2.3781 -3.1172 6.4557 -2.9973 2.4412 0.7775 -2.6076 0.5831 2.1603 -3.1668 -1.6260 3.9001 -1.9606 1.8338 -0.7963 0.2524 -0.1470 -2.5588 1.6134 -0.2021 -5.7495 2.8229 -1.9592 4.9714 1.2050 4.9412 -1.7491 0.2245 2.2434 -8.2588 3.3014 -0.8699 -0.2332 1.0751 -0.0968 3.2952 -3.7380 -3.5736 5.3678 -2.0477 2.7531 0.9708 -1.1372 -2.3840 4.8902 -1.2315 2.9942 -0.3895 -0.5032 -0.4174 -1.5916 0.5820 -0.6319 -4.3901 3.0406 -1.8762 -4.3603 3.8599 -4.0417 6.5302 -4.1693 1.9570 2.0569 -3.2233 1.1307 -6.1039 2.8484 -0.4459 4.2212 -2.5982 0.7997 -1.5175 -0.3050 -0.8491 -3.7459 1.6904
-1.1694 3.0548 -5.9016 0.5230 4.8406 -5.7576 3.8075 -1.8203 -3.6208 4.9936 -2.5227 -1.5788 0.2961 -9.1939 2.1030 1.6964 -8.3402 0.2608 -0.2600 0.6722 2.4377 -1.8199 -1.2525 2.1839 -1.1851 3.7930 0.0570 -0.6384 -4.1608 6.2378 -2.1073 7.8676 -4.2314 1.3862 0.6299 -2.8184 -3.4083 9.6242 -1.5643 1.4514 -4.9221 7.2621 -1.6179 8.6036 -0.5825 -2.3933 0.1650 -0.3957 2.9406 -6.2364 3.0908 -3.9432 3.7413 -2.1304 0.3073 -3.0157 0.5083 2.2804 -2.2153 4.7567 -1.7832 5.2566 -4.9851 3.1744 -0.8751 -1.4307 0.8712 -6.7909 1.9928 -3.0427 7.3840 -2.1086 -0.5404 -0.2892 -1.8324 -1.3722 1.9323 -1.5038 -1.8395 4.5970 -2.5990 1.6124 -1.0994 0.3722 0.6342 -2.8523 3.2627 0.9283 -5.4542 3.9458 -0.6824 4.2290 -5.0883 3.6585 -2.1115 -2.1478 1.3619 -8.1946 1.7252 -0.5236 -0.7713 2.7871 -2.0959 2.9768 -0.8286 -1.9983 6.9752 -3.1288 0.8847 0.1546 -1.5766 -2.2775 5.5554 -3.5820 1.7106 -1.0163 -1.0674 0.6682 -1.6464 2.4772 1.4995 -4.4847 4.8487 0.8009 -4.5379 6.1625 -2.5783 8.5778 -1.3352 -1.5237 0.6092 -1.1378 1.7162 -6.1543 3.0573 -2.7375 3.8084 -1.9089 0.8143 -2.0222 1.0183 1.5200 -3.0682 4.2946
-0.8981 6.9144 -6.4243 0.9081 5.3741 -5.7708 5.8440 0.4680 -0.4395 5.5807 -0.6377 1.7458 2.5984 -8.6101 5.4553 2.2737 -6.6817 6.9511 -0.6310 -1.7332 3.8028 1.6413 -2.7264 3.8920 -1.9980 3.3358 -0.0973 0.2489 -6.6482 -0.3701 -2.3704 8.3285 -3.4332 2.9828 2.0686 -1.4739 -5.5198 8.4299 -1.6299 -1.8752 -7.6190 0.3591 -3.9994 7.6095 -0.1391 -1.0927 0.0268 -2.1175 -0.6838 -6.1917 4.7516 -3.1301 3.3845 -3.4195 2.4923 -2.7813 0.4077 -1.9840 -3.9441 1.3425 -0.5534 6.3441 -4.0434 3.6389 0.4488 0.6844 1.6980 -6.4884 4.5651 -3.9708 6.8881 -2.4486 1.1833 0.7500 -2.2350 -0.5942 2.2698 -1.7745 -1.6355 4.8822 -2.4690 1.5133 -0.6798 0.4444 0.3137 -3.8588 1.5798 0.3092 -6.3672 2.6580 -0.4978 5.8247 -5.4601 4.9069 -0.3320 0.4315 1.7229 -7.4184 5.7547 0.6752 -1.9088 3.0704 -1.9317 2.7055 -1.4681 -2.4932 7.1434 -2.6597 1.9587 1.1991 -1.0142 -1.8684 5.9684 -3.3931 2.5557 0.0119 -0.2826 0.4492 -2.4236 1.6611 -0.8352 -5.9850 1.8673 -0.8672 -6.7783 0.6058 -4.4607 7.6661 -1.2684 -0.2899 0.9498 -2.0235 0.2996 -6.3465 4.0364 -2.3092 3.6815 -2.5546 1.6026 -2.0185 0.7718 -0.9079 -4.4946 1.5714
-3.1818 6.6965 1.6730 -2.7504 4.2997 2.0544 6.2849 -1.4216 -0.2861 5.1157 -2.5687 1.5512 1.6440 -9.4854 3.8832 3.5930 -8.8242 2.5283 -2.4901 -0.4287 1.1764 -0.5003 0.0147 2.5678 -1.3215 2.8787 -4.2682 -2.9587 -5.3306 3.5404 -3.2624 7.4749 -2.0749 3.9786 1.7453 -0.9138 -3.5862 5.0520 -5.2768 -1.8141 -3.8526 5.1163 -5.0309 6.7647 -4.8504 2.7295 2.8084 -3.6973 2.1891 -5.4121 3.1347 0.5069 5.2072 -2.1715 0.8519 -2.1128 -1.2871 -1.4929 -4.3578 0.9039 -3.1932 5.1071 -0.2256 4.1555 -0.5110 0.5724 1.4802 -7.5662 2.3373 -4.1331 5.4619 -3.0385 2.4405 0.7813 -2.4626 0.6111 2.2364 -2.9274 -1.5636 4.2468 -1.8326 1.7681 -0.7596 0.3594 -0.1132 -2.6725 1.7081 -0.0786 -5.8677 2.8907 -2.5546 5.4499 1.0993 4.9323 -1.7734 0.2818 2.3868 -8.3209 3.2799 -0.9830 -0.3907 1.1956 -0.0829 3.3420 -3.5421 -2.9109 6.1702 -2.4999 2.7931 0.9719 -1.0008 -2.2469 5.4278 -1.3613 2.9671 -0.3958 -0.3577 -0.4261 -1.7043 0.6911 -0.5448 -4.5224 3.1299 -1.7745 -4.5393 3.9683 -4.3174 5.8523 -4.4667 1.9687 2.0610 -3.0903 1.2676 -6.1681 2.8456 -0.3383 4.3583 -2.4537 0.7862 -1.5540 -0.1944 -0.8003 -3.8684 1.7906
-0.9975 9.0958 -4.3087 0.7820 8.7952 -2.6287 5.8420 0.9458 -1.1443 6.1074 -0.9871 0.3606 1.0070 -10.0781 6.5844 0.5761 -7.8846 7.6126 -2.0317 -2.0599 0.6454 -1.5474 -1.4058 2.9842 -1.8072 3.2426 -0.4770 1.8258 -6.6546 0.0853 -4.2326 8.0592 -1.9082 1.6217 1.6988 0.5304 -5.5942 6.7327 -4.1245 -0.4802 -7.4393 0.2855 -4.5029 4.7571 -4.4385 0.3198 1.3477 -3.5413 -0.6701 -6.6961 4.7347 -1.5771 4.3352 -3.9431 0.8951 -2.6471 -0.7076 2.1223 -4.4531 2.5173 -1.4802 7.9529 -2.1775 3.9778 0.2364 0.2886 1.2786 -8.0198 5.2487 -4.6379 5.7247 -2.2276 1.9824 1.4708 -1.8177 0.1487 2.9763 -1.8972 -1.5590 5.5579 -1.9839 2.1666 -1.3009 0.6894 0.0285 -3.8062 1.7375 1.0329 -6.9106 3.1706 -0.4438 8.1749 -3.2509 5.1447 -0.2453 -0.5337 0.4722 -8.6886 6.3387 -0.9725 -1.5522 1.5963 -1.2778 3.1552 -1.8879 -3.6461 6.7776 -1.7790 1.6563 0.7525 -0.5269 -2.2937 6.7073 -2.4625 2.6810 -0.3304 -0.2464 0.2885 -2.3920 1.6244 0.3907 -6.1151 2.1543 0.5416 -6.7686 0.8248 -4.8651 5.6694 -3.7105 0.7213 1.8863 -2.5152 0.4125 -7.1506 4.3808 -1.4993 4.3948 -2.7170 1.1186 -2.1450 0.3885 0.9744 -4.7164 2.1727
-6.5950 4.6798 -5.0114 -4.8344 4.3928 -6.7008 6.3117 -1.5604 -2.4604 5.8109 0.7937 -1.9664 -3.8306 -7.6124 2.9381 -3.6769 -5.8333 1.2490 5.5940 -2.5394 3.6275 5.3982 -3.1510 1.2456 0.0250 4.3282 -2.8588 1.0280 -5.8374 6.2773 -4.2744 7.7481 -3.0551 2.5399 1.4311 -1.8519 -2.3406 5.5145 0.0424 3.2475 -5.1780 5.5522 -2.8466 7.6518 0.6455 -1.1573 0.9022 -0.5074 -0.2839 -5.7605 1.6421 -3.2022 2.8633 -1.8172 1.4664 -1.1725 1.4213 1.1101 -2.5364 4.1015 -4.3374 5.6156 -4.6351 3.9620 -0.8583 -2.1796 -2.1424 -5.8316 3.1870 -4.1573 6.5255 -1.0409 0.6374 -0.0047 -1.8217 -0.5166 2.0019 -2.4475 -2.6421 4.5671 -3.2703 3.4368 -1.0308 0.2409 2.7850 -3.3506 2.7060 -0.0139 -5.0465 3.8367 -5.1159 4.4620 -5.2187 5.3854 -0.6321 -1.7135 -2.8832 -6.7000 2.1973 4.9406 -2.1841 2.3122 -0.8674 3.3650 -2.1098 -3.6173 6.6440 -2.4491 1.9533 0.3456 -1.1565 -3.8649 5.3486 -3.2182 2.8973 -0.8497 -1.0906 3.4332 -2.0834 2.4496 1.4314 -4.9300 3.8815 1.9467 -5.2663 5.2529 -3.0491 6.6645 -0.0448 -0.4236 1.0140 -1.4851 -0.7159 -5.5778 2.7741 -2.3533 3.5480 -2.3873 2.6704 -1.4109 1.3185 1.7311 -3.4691 3.5988
-1.3691 9.5936 -3.8524 0.2694 9.1749 -2.0618 6.2129 -0.9909 -0.4912 5.4432 -0.6623 1.8272 1.1914 -9.9564 6.3421 1.0940 -7.9240 7.7297 -2.0788 -2.1284 0.6547 -1.3939 -1.3112 2.8913 -1.4951 3.4013 -0.5387 1.9431 -7.0001 0.2130 -4.7314 7.9992 -2.4096 1.6823 1.5986 0.4355 -5.6012 6.3056 -4.6979 -0.4793 -7.3672 0.1871 -4.0240 4.6596 -4.6508 0.1455 1.1869 -3.4259 -0.4952 -6.5228 4.8096 -1.0282 4.9373 -3.8675 0.8067 -2.6455 -0.8921 2.1751 -4.4658 2.3004 -1.9576 8.1358 -1.9387 4.0525 0.1260 -0.0402 1.5244 -7.7382 5.3095 -4.8285 5.6187 -2.5874 1.9874 1.4949 -1.9254 0.2754 3.1249 -2.1537 -1.8840 5.7307 -1.8772 2.1844 -1.3766 0.4808 0.0537 -3.8439 1.5856 1.1002 -6.8644 3.1547 -0.8518 8.5713 -2.8704 5.0058 -0.9555 0.4122 0.7763 -8.5064 6.3737 -0.9399 -1.5743 1.4771 -1.1274 3.4254 -2.0045 -4.0660 6.8052 -2.0329 1.6885 0.7102 -0.6703 -2.6022 6.8560 -2.4318 2.6948 -0.4082 -0.4635 0.3107 -2.4299 1.4668 0.4247 -6.1360 2.1071 0.5870 -6.8579 0.8109 -4.7348 5.4715 -4.0764 0.6967 1.8840 -2.5814 0.5717 -6.9867 4.4231 -1.3206 4.7661 -2.6841 1.1006 -2.1846 0.2055 1.0105 -4.7405 2.0279
1.2656 8.1355 -0.9108 -0.7776 9.5118 -0.9726 4.0469 0.3929 1.1528 4.1285 1.9459 -0.7604 0.7512 -8.7321 7.5984 -1.5023 -7.8007 7.2658 -0.1664 -5.2101 -1.9863 -2.1029 -4.5195 -0.6140 -1.3109 5.0407 0.0863 4.0896 -5.3789 2.7021 -2.2654 7.7581 -5.0084 1.0649 1.3355 -2.5242 -5.4156 7.7202 -3.5957 3.5044 -7.4057 1.4657 -4.8419 5.6352 -2.8646 -2.6344 1.3964 -0.1581 -0.4791 -7.6142 3.8138 -1.8566 3.9105 -3.3741 2.3220 -3.3796 -0.9825 1.2205 -3.7998 2.7462 -0.2095 8.0489 -2.8842 3.0500 -0.2635 -1.0144 0.3931 -6.9245 5.9533 -3.2226 7.4280 -2.8451 -0.7613 0.4606 -1.3141 -0.9377 2.8266 -0.8107 -0.6077 5.6314 -2.4846 1.1163 -1.5393 -0.2435 0.6993 -4.8661 0.7522 1.4332 -6.2993 3.9234 -0.1670 8.1952 -1.3806 3.3094 0.8857 -0.0658 -0.2060 -8.1610 6.5816 -0.7346 -4.1182 -1.1082 -1.6882 4.0464 -0.9872 -2.2536 6.9022 -3.8784 0.7336 0.6892 -1.2978 -0.8375 6.7555 -3.3646 1.5739 -0.5712 -1.2113 0.1637 -3.7190 0.0495 1.6462 -6.1771 2.4996 3.0954 -6.3629 2.1937 -4.5580 6.8020 -3.0906 -1.5454 1.5946 -0.6922 0.3808 -7.0181 4.4524 -1.4026 4.5124 -2.4018 1.3235 -2.8921 -0.4589 1.1730 -4.8084 2.0488
-4.8045 6.2237 -6.1324 -2.5578 5.7202 -7.0031 1.9197 -3.0201 -4.6317 2.4551 -4.7371 -2.9471 -0.6998 -9.6772 4.1722 -0.1952 -9.1261 1.8253 4.0519 -0.7315 3.5560 4.6963 -2.6916 2.1851 0.9641 4.5554 -3.6844 -0.4413 -3.9539 6.9246 -3.9748 8.2318 -2.8785 2.0862 0.1352 -3.2718 -3.9994 7.5010 0.5741 1.9077 -3.3098 7.0776 -6.0765 7.5738 -0.3666 1.4562 2.6052 -0.2801 1.8664 -6.5902 3.3965 -2.1046 3.8070 -1.9398 0.6244 -2.6573 0.6705 -0.0273 -2.3908 3.9674 -2.8009 6.7512 -4.7805 2.8675 -2.3551 -2.4476 -0.4301 -7.3190 3.4874 -4.3127 6.3410 -1.4460 0.7547 0.5850 -1.3633 0.3135 2.7046 -2.3061 -1.4633 5.7363 -3.0339 2.5467 -1.6827 -0.1500 1.9862 -3.0837 3.0385 0.2896 -5.3299 4.5465 -3.4116 5.7777 -5.7604 1.9559 -3.3295 -3.1556 0.0473 -8.7343 3.2623 3.7463 -1.5232 2.3091 0.2426 4.1424 -2.4207 -3.3312 7.1026 -2.3133 2.0475 -0.0290 -1.8608 -2.7961 6.1676 -3.3845 2.0576 -1.5023 -1.4964 2.2783 -1.9043 2.2554 1.1794 -4.2601 4.9340 0.9204 -3.8212 6.3368 -4.9106 7.2068 -0.3821 0.9049 2.0708 -1.2352 0.7226 -6.4059 3.7980 -1.2327 4.5012 -2.4599 1.7286 -2.1472 0.8582 0.9531 -3.1278 3.9560
-5.0912 5.6107 1.9677 -5.2194 3.1569 1.8276 5.1436 1.5979 2.1325 5.2001 -0.7429 2.8985 -2.1186 -4.1205 4.8791 -3.9580 -4.2084 3.2411 1.2456 -4.6693 -3.0249 0.1253 -2.7845 -1.8840 -2.7021 0.9656 -2.5984 3.2143 -3.8769 3.7273 -4.8417 5.8366 -2.5245 2.0291 2.2389 0.4568 -2.9392 9.0834 -2.6449 2.9422 -6.2967 4.0009 -2.1641 7.3968 -3.9700 0.9099 0.3341 -3.6155 -0.9218 -5.7527 1.2046 -0.7330 3.9460 -1.6597 4.3262 -1.9851 -1.4308 3.6661 -5.4057 0.5628 -4.7425 4.4775 -0.1941 3.2808 0.0784 1.5874 -1.6477 -3.8498 2.4714 -2.8898 6.9512 -1.6989 1.9728 1.3876 -1.7461 -0.4106 1.1489 -1.9003 -2.9516 3.3658 -1.3827 2.4819 -1.3010 -0.2063 1.9268 -3.9929 0.0174 0.6388 -4.4327 2.3165 -4.5225 4.3846 1.2960 4.7737 0.1776 1.7818 -2.5109 -4.5554 3.4890 1.4551 -3.3479 -2.3282 -1.4773 1.8499 -2.5709 -3.5105 5.6292 -2.0894 1.8808 1.0318 -0.2756 -3.4315 4.6516 -0.9299 2.9510 0.0263 0.1099 2.4767 -3.4907 -1.2172 1.7991 -5.2644 2.0874 2.6778 -5.1954 3.2916 -2.6185 7.7927 -2.9080 0.7869 0.8889 -2.5271 -0.6294 -4.8097 1.9315 -1.6600 3.1512 -1.8112 3.2050 -2.1884 -0.9715 2.5821 -4.8893 0.8313
0.1866 7.8072 -5.8818 1.4399 5.7330 -5.4698 4.1067 -0.9638 -2.1469 4.4246 -1.9557 0.0960 2.2526 -9.3225 5.1839 4.0377 -9.5141 3.4984 -2.3390 -3.5788 -0.5941 -0.9364 -5.5757 -0.1826 -2.3077 4.1758 -0.1223 0.6473 -3.6994 6.8636 -0.3685 8.9323 -1.8957 1.0513 1.0382 -2.2636 -4.2552 7.9331 -2.7002 -0.5145 -5.7867 6.3824 -3.0941 9.8858 -2.5157 -2.6707 1.1993 -3.1511 3.0349 -5.7027 2.9649 -3.0706 4.8631 -3.4433 1.3328 -3.6193 -0.1212 -0.7929 -2.9184 4.0737 0.3803 6.9093 -3.5905 2.4549 -0.5154 -0.3407 2.1584 -7.9231 3.1491 -2.4457 7.9511 -1.2129 -1.0955 0.1751 -1.6669 -1.4597 2.5675 -1.7377 -1.0667 5.3903 -2.4106 0.3403 -1.5519 0.2563 -0.0364 -4.2113 2.3153 0.9755 -6.0372 3.9928 0.2411 6.5498 -5.0501 3.4122 -1.5229 -0.9334 3.0721 -8.5658 4.1680 -1.5978 -4.3726 0.4522 -2.4295 3.6061 -1.5141 -1.0211 7.6973 -1.6621 0.3218 0.4446 -1.1951 -0.9368 6.7612 -2.8569 1.0390 -0.8334 -0.7882 -0.6596 -3.4808 1.2404 0.7903 -4.7023 4.5331 0.2545 -4.7903 5.9301 -3.2603 8.7135 -2.2155 -1.8249 1.3528 -2.2721 2.1358 -6.4360 3.3627 -2.2371 4.6778 -2.5596 0.4568 -2.9250 0.3861 -0.1267 -3.8588 3.6453
1.3407 7.5119 -5.1373 2.4483 7.0930 -2.9828 3.5517 -0.1517 -3.1761 4.6132 -1.7122 -1.5879 2.1161 -8.5690 7.4340 -0.0764 -9.4400 6.7218 -1.3789 -5.3475 -1.0715 -2.7354 -4.3661 0.7529 -0.4275 5.2605 0.9653 3.8524 -4.5018 3.1865 -2.2407 8.8706 -3.5558 0.6686 1.4258 -2.2429 -5.3486 8.3455 -3.0641 3.7317 -6.6327 1.9894 -4.9648 7.6604 -5.2057 -2.1704 1.7720 1.1593 -0.4073 -7.4133 3.9730 -2.6362 4.5027 -1.8810 1.1488 -3.4319 -1.3574 0.7926 -3.4662 3.0892 0.0732 7.6823 -3.0258 2.5999 -0.4756 -0.9175 0.5829 -7.1298 6.1389 -3.5599 6.8600 -3.4259 -0.9949 0.8098 -0.6890 -0.8025 3.1386 -0.1236 -1.0292 6.1328 -1.5374 0.5744 -1.5339 -0.1411 0.4027 -4.6359 1.1226 1.3530 -5.9262 4.2457 1.1607 6.9332 -3.7544 3.3014 -1.1484 -2.0716 1.0764 -8.5430 6.3418 -1.6135 -4.1195 -0.2244 -1.3946 4.4240 0.1598 -2.4331 7.6731 -2.8189 0.4922 0.7981 -0.9753 -1.1610 6.8289 -2.8054 1.0999 -0.5845 -1.0863 -0.3845 -3.6061 0.4938 1.6195 -5.7322 2.8425 3.0885 -5.6440 2.6163 -4.6744 7.6631 -4.0184 -1.3878 1.9410 0.2285 0.4425 -6.8685 4.6693 -1.7467 5.0060 -1.1955 0.5275 -2.8798 -0.4548 0.9093 -4.4734 2.3975
-6.8630 4.2842 -3.8064 -5.0712 3.2997 -5.1772 -1.6144 -1.5304 3.3671 -0.8806 -3.2131 1.7313 0.2310 -7.7172 6.9965 -0.5252 -5.4226 6.5314 3.5679 -3.5498 -2.2765 1.1746 -3.1590 -1.8627 -0.4486 3.6914 -3.6407 4.4701 -7.5922 1.1415 -3.4524 7.7278 -1.4912 0.0556 2.1713 1.6709 -1.8731 9.8732 -3.2200 2.3170 -8.2022 0.1689 -0.3707 8.2713 -2.6041 2.2741 3.7972 -1.4867 -0.0165 -5.9303 3.2234 -1.8321 5.4212 -0.6822 3.0965 -1.4061 1.9192 4.1717 -4.6429 1.8720 -4.6951 5.4464 -4.0376 -0.6460 -0.8065 1.2226 1.2994 -6.4045 5.1926 -2.4182 7.6508 -3.7210 1.6248 1.9677 -0.0961 0.0167 3.3498 -1.2944 -2.6731 4.9365 -2.7844 1.5707 -0.8193 0.2875 2.2994 -4.0149 0.6544 2.2442 -6.4209 3.0208 -5.3712 4.1007 -3.9338 -0.5849 -1.8519 2.3133 0.0032 -6.6934 5.9130 2.5747 -2.7526 -1.4672 -0.3905 4.3320 -2.2722 -3.5716 7.2576 -2.8186 0.4131 1.3455 0.5686 -3.8621 5.7678 -2.8106 0.6644 -0.0544 1.1091 2.8676 -2.8535 0.0178 2.3350 -6.2038 1.5950 3.0138 -7.3594 0.9370 -1.4368 8.5974 -3.1037 1.3494 3.1311 -1.0218 1.0675 -6.2244 3.7165 -1.7048 4.9329 -1.8036 2.5284 -1.6332 0.8516 3.0711 -4.8951 1.3907
-6.6890 5.0045 -4.5316 -5.1047 3.4982 -5.6547 -1.7311 -3.3060 -0.7628 0.5910 -3.9902 -0.3037 -0.7553 -9.9441 3.7574 -2.0957 -8.2729 2.5444 5.4044 -1.5868 2.4038 4.2236 -2.3187 0.3645 -0.3339 3.3928 -4.5800 4.4944 -5.8613 5.5167 -3.7653 8.2464 -4.4634 0.1028 1.7799 0.8339 -3.7673 10.0686 -1.3285 5.2839 -6.5546 3.3103 -1.7186 9.7383 -2.2771 2.1625 3.2801 -1.6964 0.8514 -6.5660 1.8450 -1.5823 5.1441 -1.5885 0.7685 -1.1840 3.1664 2.4457 -3.6973 4.8136 -4.3402 5.6854 -4.8369 0.0571 -1.6188 -0.6961 -0.1089 -7.5579 3.8182 -3.3239 7.9261 -2.1396 1.1943 1.1479 -1.2246 -0.0643 2.9175 -2.2380 -2.2222 5.1718 -3.8101 1.5199 -0.7412 1.0280 2.6846 -3.3964 2.5264 1.9474 -6.3871 3.8850 -5.2594 4.5223 -4.5566 -0.4405 -2.9092 -0.0917 -0.7002 -8.6591 2.9695 4.0958 -1.5439 1.6552 -0.2065 3.9875 -3.1953 -3.0463 7.4392 -3.5456 0.1028 0.8288 -0.2190 -3.4218 5.9681 -3.6643 0.2469 -0.5637 0.3708 2.9455 -1.9801 2.5418 3.0402 -5.5777 3.4036 4.3157 -6.0020 4.0457 -2.8176 9.3229 -1.9439 1.1653 2.5649 -1.7268 0.9342 -6.8025 3.0453 -1.4157 4.7962 -2.7569 1.6271 -1.2777 2.2906 2.7056 -4.1325 3.6960
1.0833 4.1805 -4.9828 1.2830 6.5467 -4.3285 1.8923 -3.0177 -4.5020 3.6284 -3.7440 -2.9080 -1.0623 -8.7612 3.2222 -0.2446 -8.4143 0.9202 1.1830 0.8275 2.1289 -0.7715 -0.5819 2.7416 -0.3454 4.2664 -0.0996 0.9379 -3.3836 6.5601 -1.4394 7.7185 -3.0762 0.4957 0.1193 -3.2964 -5.3412 8.7278 -2.7798 2.9812 -4.6693 6.9622 -4.1376 7.9561 -1.0015 -2.2332 0.6855 0.3030 2.4361 -6.6885 2.8232 -3.5725 4.1943 -1.2939 0.0455 -2.9496 0.6616 3.5060 -2.4906 3.9703 -0.9563 5.5341 -4.6494 2.3358 -1.6957 -2.4649 0.0403 -6.6348 2.6028 -3.7333 7.1090 -3.2442 -1.0341 -0.2276 -1.5482 -0.9889 2.1171 -1.0313 -1.7217 4.2727 -2.6831 1.5907 -1.4473 -0.2014 1.4038 -2.7884 3.0573 1.1776 -5.2555 4.1495 0.4605 5.2926 -4.1756 2.2777 -3.0863 -3.0448 0.0157 -8.1288 2.3792 0.7314 -0.4700 2.7490 -1.4857 3.3489 -0.4717 -2.3518 6.6677 -2.8139 0.4382 -0.1475 -1.9008 -1.9906 5.3930 -3.5494 1.1370 -1.4567 -1.5735 1.4525 -1.6623 2.1590 2.2672 -4.4388 4.6269 2.0997 -4.1811 6.0848 -4.3897 7.9571 -2.1964 -1.4716 0.8876 -0.6390 1.3608 -6.2271 3.1890 -2.3799 3.9915 -1.5080 0.9242 -2.1068 0.8119 2.4656 -3.1383 3.8615
-4.4444 4.5908 -6.5583 -2.1541 3.7019 -6.6953 3.3273 -1.8831 -3.5933 5.2853 -1.6376 -2.1135 -2.1902 -8.7006 3.4403 -0.5713 -9.7135 1.8842 4.0427 -0.3127 4.4809 5.2727 -2.1766 3.4143 -0.9543 4.6668 -0.3282 0.1436 -5.9244 6.0331 -4.4960 7.4477 -3.7423 0.5597 0.3073 -2.4267 -2.4224 10.0125 -2.7208 1.7211 -4.1106 6.3573 -2.1854 8.6507 -0.9080 -2.6246 0.6854 -0.3253 1.6087 -6.8299 1.9651 -4.0545 3.4530 -1.6697 3.3373 -2.7348 0.6262 0.2555 -2.6797 3.3935 -2.6964 5.4227 -5.0139 3.2327 -0.3479 -1.6483 -0.7514 -7.2546 2.0623 -2.2017 7.7219 -3.1435 -0.2759 0.2581 -0.1855 -1.1835 2.3488 -1.0239 -2.3733 4.6383 -2.7309 2.4107 -0.6031 0.6210 2.5589 -2.9489 3.2407 0.2442 -5.4681 3.2647 -3.2199 4.2178 -5.7601 3.7784 -1.6558 -2.1729 -0.8208 -8.5584 2.8233 4.2176 -1.1141 3.2157 -1.9054 3.5310 -0.6222 -3.4246 6.8331 -3.0420 0.9473 0.4524 -1.0644 -3.2137 5.4346 -3.5915 2.0168 -0.5915 -0.7715 2.8791 -1.6365 2.7231 1.2810 -4.7924 4.0137 1.0118 -4.8412 5.4891 -2.2752 8.8097 -2.1156 -1.4845 1.1040 -0.5176 0.5117 -6.5256 2.4211 -2.8959 3.8624 -1.7175 2.9069 -1.7490 1.2183 1.2688 -3.3606 3.5147
-1.9366 7.7348 0.9334 -2.0618 5.4834 1.9146 5.8098 -1.0218 -1.7579 5.9216 -1.5152 0.6531 1.6635 -9.4409 0.8601 3.1234 -7.6976 -0.0764 -0.6923 0.3315 1.7486 -1.6810 -1.6115 0.5664 -2.7755 1.4432 -2.1373 -2.4091 -5.3379 4.3778 -4.4848 6.8430 -2.3295 2.1479 1.9131 -0.2566 -2.8555 8.6789 -5.3588 -1.0191 -5.6568 6.3719 -3.6361 6.5555 -5.6415 0.5414 0.8962 -4.3111 2.5391 -6.3185 3.3150 -0.8945 4.2092 -3.6503 1.2150 -2.9456 0.0714 0.1991 -2.6587 4.8280 -3.0104 5.8940 -0.3140 4.1177 -0.0823 -0.2278 1.2658 -7.0700 1.4017 -2.4984 7.1937 -3.5940 1.9371 0.8630 -2.3742 -0.3598 1.6241 -2.3099 -2.3803 4.1536 -1.8766 2.1459 -0.9765 0.8664 0.0599 -3.2433 2.5968 0.2573 -5.8894 3.1711 -1.8899 6.2567 0.6299 4.9965 -1.2763 -0.5145 2.3224 -8.1118 1.1330 -0.9405 -1.1570 1.8016 -1.6123 2.0691 -2.8653 -3.3221 6.1945 -2.8135 1.8006 0.6867 -0.8798 -2.4832 5.5863 -1.6990 2.6605 -0.4565 -0.3774 0.3329 -1.9239 2.0792 0.1378 -5.0020 4.3031 -1.0936 -5.3457 5.0747 -3.0710 7.4004 -4.9640 0.6396 1.1058 -3.1035 1.4606 -6.4086 2.7388 -1.5778 3.5817 -2.8415 1.2568 -2.0333 0.8901 0.1336 -3.5174 3.9473
-0.5843 8.2799 -6.2463 1.1749 7.3566 -4.7909 0.0167 -4.6603 -2.4484 2.3111 -4.7052 -1.5625 -0.7447 -8.3260 5.6564 -0.9980 -9.1112 3.3339 5.0136 -0.8617 2.6454 4.6590 -2.3136 0.6730 -0.2306 3.9005 -0.9797 2.6188 -4.8792 6.3274 -4.4816 6.2349 -3.5028 0.4834 -0.2238 -3.1916 -5.4547 7.4117 -0.6174 4.4781 -4.5492 4.7818 -4.2922 5.4616 -0.3758 -2.9377 1.0793 -0.5798 0.6618 -6.1211 1.9883 -2.6502 3.6573 -3.6938 0.7463 -0.0266 1.4577 1.3867 -2.2853 4.3515 -1.1215 7.5859 -3.9368 1.2492 -2.5543 -2.1016 -0.7897 -6.6978 3.8057 -3.3379 7.3020 -1.6096 -1.3950 -0.3500 -1.7309 -1.3626 2.0354 -1.9805 -1.5109 5.4664 -2.8266 1.8371 -1.0530 -0.3007 2.2944 -2.6865 2.2530 0.9559 -5.1184 4.0658 -0.2867 7.2794 -5.1569 1.0084 -3.9433 -1.5658 -0.3452 -8.0802 4.2221 4.1105 -1.1564 1.4739 -1.5334 3.4067 -1.5674 -3.3923 7.0432 -3.1029 0.1143 -0.3089 -1.8262 -2.1085 6.4729 -3.6716 0.7485 -1.5010 -1.1363 2.6845 -1.3373 1.9461 2.2273 -4.4896 3.7992 3.1552 -4.6207 4.9626 -4.3907 6.5972 -0.8140 -1.9735 0.9850 -1.3345 0.3579 -5.9741 3.1670 -1.9372 4.1555 -2.8240 1.6479 -0.7425 1.0270 1.9178 -3.0341 3.5371
-1.9249 9.6292 -3.5918 -4.2634 9.4326 -2.8476 4.0751 2.0885 -0.2598 4.5021 0.2820 1.3665 0.9107 -9.9613 6.4435 -1.2676 -9.8021 5.3087 0.7872 -4.7569 -1.6072 -1.4355 -4.6937 -0.5275 -4.1467 4.1239 0.6158 4.2541 -4.6736 2.8845 -0.7448 6.7153 -5.0126 0.6313 2.5132 -1.0737 1.8838 4.4682 -4.5079 3.2013 -4.5474 5.0752 0.0852 3.3297 -5.3308 -2.5733 1.9417 -2.6661 0.6729 -7.9855 2.8913 -1.7957 5.5912 -0.3483 2.3011 -2.1696 -0.5943 0.4590 -3.3067 3.2574 -3.0734 7.4394 -3.6646 2.1869 0.9504 0.8569 0.2831 -7.8841 5.2742 -0.1865 4.9365 -3.5404 -1.1151 0.8771 -1.1046 -2.5009 2.7403 -0.4873 -2.9320 5.4136 -2.3683 0.6533 -0.8538 0.3810 1.1588 -4.0940 1.1868 0.9387 -5.9845 4.0360 -2.9272 8.7352 -2.9031 3.5732 0.7748 0.2857 0.1833 -9.3903 5.2517 -0.2043 -3.8908 -0.8652 -3.4227 3.8325 -0.6755 -1.3192 5.7181 -4.1759 0.0640 1.4388 -0.3329 -2.1481 6.3875 -3.0917 1.1568 0.4072 -0.1118 0.3530 -3.2156 0.3727 1.8187 -5.3082 3.1135 3.0749 -4.8398 3.7766 0.5679 4.1495 -4.5656 -2.1310 1.9076 -1.5209 0.6597 -7.3311 3.9276 -2.6087 5.0350 -1.0794 1.2256 -2.0486 -0.0150 1.0597 -4.1215 2.5643
-0.1398 7.8300 -6.1245 1.7991 6.8867 -4.9369 0.4194 -3.4381 -3.9153 2.6450 -3.5700 -2.8900 -0.0127 -10.0784 5.2253 2.3253 -10.1403 5.9986 5.0023 -3.3743 2.1248 3.4799 -4.2769 0.4014 -1.9319 4.5399 -0.1972 -1.7144 -5.6460 4.5184 -2.1588 9.4241 -3.1345 1.1767 1.0038 -1.5027 -4.7854 9.6469 -1.3733 -0.9347 -3.3646 4.8222 -5.3899 9.1557 -3.5174 -2.4221 1.4553 0.1374 2.9397 -6.7312 4.8844 -2.1104 4.3243 -3.8759 0.7760 -1.0355 1.9336 0.6647 -4.6325 1.6854 -0.1641 7.6264 -3.6596 1.1862 -1.6513 -2.4009 1.6757 -8.6326 4.1557 -3.7689 7.7801 -2.3764 -1.1097 0.3021 -1.5039 -1.5152 2.6398 -1.6524 -1.3338 5.9316 -2.4144 1.8330 -1.5461 -0.0559 2.1086 -3.3734 3.0064 0.8784 -6.4200 3.8540 0.2939 6.9891 -4.9487 1.2152 -3.1370 -2.6683 1.2297 -9.2547 5.4579 3.8323 -3.0615 1.2232 -2.2616 3.8719 -1.5154 -2.3045 8.1708 -2.4830 0.2579 0.1168 -0.8835 -1.5243 7.1047 -3.2405 0.7446 -1.3208 -0.9873 2.6728 -2.5006 2.0094 0.7569 -4.9980 4.0801 -0.6455 -4.6125 4.4372 -4.7308 8.9220 -2.5154 -1.7695 1.5096 -0.8997 1.9175 -7.1665 4.3654 -1.8952 4.7116 -2.7279 1.6439 -1.6411 1.3060 1.1484 -4.3389 2.7739
-6.8054 1.0392 -1.4146 -5.2571 0.7721 -3.3082 6.9302 -0.9251 -3.0768 7.1903 -1.1710 -0.6387 -5.0769 -3.3555 1.0142 -3.7449 -3.8960 -0.9838 5.2657 -3.3190 3.5091 4.6893 -5.1171 1.9102 -0.8133 2.2692 -3.0868 0.2017 -2.0925 5.3806 -4.2121 5.2888 0.3862 1.5450 -0.4555 -2.1746 -3.9805 8.1122 -1.1924 0.3523 -4.5298 5.4316 -2.0394 6.9277 -1.3959 2.3839 3.3452 -1.9259 -1.1132 -4.7937 1.1047 -1.7699 3.5132 0.1862 3.6305 -3.5069 -0.6183 1.3476 -1.3679 2.6164 -5.3517 2.9126 -2.1069 5.1606 -0.1235 -1.5567 -2.6426 -2.9365 1.0108 -4.1535 5.9192 -1.9864 2.3869 1.2603 -0.7366 0.4083 2.5231 -1.0203 -2.9759 3.3271 -1.7774 3.5826 -1.2445 -0.0850 2.4046 -3.3656 2.0760 -0.9412 -3.0750 2.6580 -5.4474 1.4136 -1.9555 6.2050 -1.1912 -1.7816 -3.7404 -3.8555 0.5253 4.8718 -3.6278 2.0867 -0.5703 3.1507 -1.8799 -4.6298 4.9503 -0.9204 2.7191 0.2627 -1.8280 -4.2910 3.4986 -1.2006 3.7857 -0.7356 -1.4194 3.6708 -2.7981 1.6887 0.3269 -3.4840 3.2131 0.2897 -3.4133 4.7009 -3.2546 7.0079 -1.4886 1.7522 2.4872 -1.3203 -1.5002 -3.7310 1.5792 -1.8169 3.3177 -1.0272 3.6263 -2.5934 0.1994 1.4009 -2.5937 2.6299
-6.2493 5.7713 -3.7682 -5.1350 5.5478 -5.9531 5.4948 1.0798 -0.7713 5.3766 -0.5528 1.0656 2.5717 -8.8584 0.2745 3.5740 -6.7352 -0.4647 -1.2040 0.1732 2.8540 -2.0058 -1.6734 1.4071 -3.4802 1.4233 -0.5950 -1.9172 -5.9200 4.6662 -1.2423 6.8121 -4.5487 1.0781 2.3976 0.7803 1.7182 6.6260 -2.7892 -0.2684 -6.5333 6.3665 1.5731 4.9518 -4.3333 -0.4546 1.2584 -3.2746 3.0389 -5.9069 3.0590 -3.1617 4.2755 -0.6043 0.9494 -2.4196 0.4518 0.2971 -3.0578 5.2975 -3.8313 6.2018 -3.9647 3.4554 0.9274 0.6080 1.7507 -6.7192 1.1857 -0.2855 5.4314 -2.8552 1.0820 1.6309 -1.4766 -1.2610 2.1113 -1.2745 -3.0733 4.0929 -2.9164 1.7337 -0.5184 1.5225 0.1549 -3.3126 3.0067 0.7173 -5.9692 3.1638 -4.9775 5.3555 -4.4656 4.5851 0.1430 -0.0151 2.9698 -7.4690 0.7076 -1.2205 -1.3208 2.6466 -2.6557 2.1480 -1.6328 -1.3738 5.5504 -3.9066 1.0291 1.2278 -0.0193 -2.7319 5.4578 -3.2285 2.1234 0.2496 0.3583 0.1779 -1.9009 2.6916 0.5612 -5.2780 4.4189 -0.5294 -5.9293 5.2038 1.0840 5.6159 -3.4331 -0.2852 1.6197 -2.1133 1.9464 -6.1710 2.5708 -2.9940 3.6142 -1.6240 0.9781 -1.6724 1.4245 0.3164 -3.7762 4.2972
-0.9326 7.3117 -4.2372 -2.7892 8.3855 -3.0214 5.4405 -1.1693 -4.1872 6.3913 -1.4840 -1.9367 -4.6191 -3.9649 3.3053 -4.1067 -4.2375 0.9137 5.8935 -3.0569 2.3977 4.8383 -5.1283 1.5466 -0.0454 3.5187 -1.4395 1.2467 -2.1434 6.0100 -5.3877 4.3927 -1.8838 1.6691 0.0891 -3.4897 -5.1954 5.6753 1.0118 1.8814 -4.4984 6.0999 -3.9265 3.7781 1.0062 -0.8744 0.0287 0.0886 -0.7794 -5.1421 2.2063 -3.3476 2.1409 -2.3490 2.8368 -3.8589 -0.6807 1.6979 -1.5412 3.0583 -3.0914 6.1358 -4.0013 4.1431 -0.5164 -2.1892 -2.3830 -3.3642 2.4465 -3.5667 5.4839 -0.6615 0.3376 -0.8469 -1.7796 -0.7701 1.2561 -1.8832 -2.2901 4.1332 -2.8327 2.8632 -1.5515 -0.4251 2.6263 -3.4997 2.2241 -0.3951 -3.4327 3.7358 -2.1132 7.0729 -3.3296 5.1231 -1.5157 -2.7535 -3.5425 -4.3240 2.3111 4.9518 -3.6320 1.3713 -1.1929 2.5359 -1.3683 -4.3212 5.3196 -1.9676 1.6862 -0.2415 -2.1073 -3.4442 4.9398 -3.1448 2.8347 -1.1912 -1.8269 3.6296 -2.8893 1.3827 1.0097 -3.6875 3.9547 1.3611 -3.4927 5.3913 -4.2310 4.8590 0.5252 -0.4907 0.1821 -1.0660 -1.1173 -4.1066 2.7697 -2.3809 2.8947 -2.2376 3.0659 -2.8539 -0.0150 1.8066 -2.7632 3.0575
1.1574 6.0974 -2.1609 -0.0337 8.2332 -1.8953 4.5807 -0.5875 -4.5396 5.7152 -0.9872 -2.3888 -4.2401 -5.1880 3.9919 -4.1007 -5.0547 1.5399 5.8663 -2.9127 2.0270 5.1672 -4.9950 0.8877 -2.1631 2.7424 0.7515 1.9659 -3.2684 5.9280 -3.1358 7.7232 -1.5415 0.4504 -0.4617 -3.2983 -6.3824 6.9755 -0.7468 2.6241 -5.5856 5.5271 -6.0770 7.9878 -2.7685 -2.4760 -0.6959 -0.8216 -0.5703 -5.7768 2.0895 -2.7712 2.7698 -2.8676 2.8283 -3.8664 -1.0827 1.7109 -2.1498 3.0454 -1.2067 6.2773 -2.8392 3.3592 -0.2802 -2.4255 -2.2240 -4.2383 2.9222 -4.7629 6.0560 -2.1769 -0.1175 -0.9570 -1.0337 -1.1722 1.2187 -0.8677 -1.9353 4.3846 -1.4431 2.5700 -1.6111 -0.5779 2.7481 -3.8437 1.8427 -0.0169 -4.2944 3.7901 -0.1720 6.7318 -1.8348 4.4076 -1.1033 -3.1331 -3.3117 -5.2817 2.8065 5.0247 -3.4914 0.9179 -2.2703 2.1209 -0.6186 -3.4287 6.3377 -1.5122 0.9352 -0.3901 -1.9638 -2.3608 5.5224 -2.2171 2.2435 -1.1637 -1.9114 3.5970 -3.0014 1.0363 1.4152 -4.4634 3.7095 2.0111 -4.4877 5.0760 -5.7891 7.1234 -1.9542 -1.3813 -0.1443 -0.9195 -0.8668 -4.8821 2.8743 -2.3455 3.1078 -1.7635 2.9630 -2.9106 -0.3257 1.9711 -3.3354 2.8659
-6.6621 2.1205 -1.5868 -4.9151 0.7459 -2.6520 6.7429 1.3577 -0.0290 6.8087 -0.6790 1.3641 -3.1047 -1.2299 4.5990 -0.8785 -0.3244 5.1748 3.1128 -5.9904 -2.5001 2.0040 -3.9255 -3.3233 0.1713 4.3468 -0.5013 -0.4035 -6.8504 1.4363 -5.2428 5.7667 -0.9438 1.9076 0.0394 -1.8600 -3.5322 8.1424 -2.9215 -1.6836 -5.8258 -0.3775 -1.7779 7.4189 -1.6518 1.0698 1.6486 2.2226 -1.1469 -1.7969 1.5234 -2.5624 3.1097 1.4650 5.1306 -2.7518 -1.4182 2.1353 -4.9265 1.5086 -4.4768 3.1167 -2.1658 4.6342 0.2473 0.6278 -1.0623 -2.4056 3.8592 -3.4198 5.8532 -2.4822 1.4051 0.0670 0.4595 0.0541 2.0081 0.1631 -2.4659 3.4016 -0.8281 3.5203 -1.7838 -0.0883 1.7853 -3.7926 -0.4873 -0.4187 -3.9082 2.1511 -5.1774 1.8710 -1.6824 6.0818 0.0322 0.2500 -1.6821 -1.0556 4.1288 3.1103 -4.4834 -2.4615 -0.4113 3.3370 0.4559 -3.9035 5.3463 -1.1414 2.4511 0.3781 -0.5909 -3.8279 3.8407 -1.0080 3.7393 -0.3965 -0.4057 3.1065 -3.9854 -1.0312 -0.1178 -4.3640 0.8162 -0.7504 -5.6909 0.5689 -2.7984 7.1976 -2.2865 0.8614 1.3311 1.0557 -0.8953 -2.6338 2.3830 -1.9182 3.2779 0.4311 4.0160 -2.7801 -0.8968 1.3870 -4.4218 0.6773
-1.6932 5.9201 1.7377 -3.6805 7.2752 1.2339 5.5534 0.0629 -3.3489 6.1756 -0.4870 -1.0280 -4.3888 -6.0944 2.0949 -3.2480 -5.8140 -0.0651 5.7135 -2.8966 2.9814 5.4423 -4.6602 1.2676 -2.2796 2.8032 0.4299 1.1470 -3.3814 5.8376 -4.4338 6.8768 -1.8864 1.1912 0.0898 -3.0476 -5.6093 6.3817 -4.7577 1.7777 -5.7285 5.5930 -4.0308 8.0181 -4.9624 -2.1868 -0.5440 -1.0059 -0.2142 -5.9964 1.4604 -2.3417 3.1336 -3.2153 3.4299 -3.4591 -0.8081 1.3539 -2.2087 3.0171 -2.0534 6.7637 -0.5546 3.8668 0.2094 -1.5505 -2.2628 -4.8362 1.9753 -3.4747 5.9234 -3.9053 0.1913 -0.6695 -1.0175 -0.9974 1.4410 -1.1222 -1.5962 4.5798 -1.5760 2.7375 -1.3572 -0.0991 2.7996 -3.7632 2.0742 -0.2957 -4.5376 3.2653 -2.7337 6.2343 0.6897 5.0726 -0.5463 -2.0567 -3.0442 -6.0062 1.4182 5.1707 -3.2135 1.6108 -2.1525 2.2934 -0.9833 -3.6151 5.8392 -2.3936 1.3873 0.0263 -1.6405 -2.2296 5.8683 -1.7655 2.6862 -0.7274 -1.3975 3.7142 -2.8088 1.5014 1.1199 -4.5631 3.5419 1.3623 -4.5996 5.0114 -4.3753 6.9094 -4.5818 -1.1221 0.0687 -1.0637 -0.8239 -5.2169 2.1855 -2.0564 3.3696 -2.0423 3.2946 -2.6110 0.0679 1.7524 -3.3610 2.8804
-1.2586 6.4000 -4.0925 -0.1893 4.2066 -3.7297 3.7936 0.2163 -4.9710 5.1067 -1.6689 -4.0686 -4.2088 -1.9049 4.8331 -4.4848 -1.0891 2.5286 4.5436 -5.1910 0.4064 3.1914 -4.0955 -1.3540 -1.6785 1.2181 1.2215 0.9224 -5.4954 4.2842 -3.9838 6.1104 -0.9054 2.4516 1.9595 -1.7032 -5.4964 5.0950 1.9519 -0.2141 -6.2078 2.2416 -6.7293 4.6918 0.0747 -0.3232 -1.5505 -1.3864 -1.5677 -2.1310 1.2537 -2.5674 1.6349 -2.2331 4.1360 -0.6412 1.4959 2.4210 -2.9776 3.4374 -1.4486 5.2902 -1.8937 4.6528 0.3146 -2.6616 -2.2195 -1.4430 3.4547 -4.4237 4.0020 0.1709 1.5530 -0.2208 -2.0382 -0.1484 0.6098 -0.5580 -1.7501 3.1990 -0.7330 4.1815 -1.1601 -0.7594 2.2702 -2.9780 1.1223 -0.4369 -2.9686 3.1012 -1.3771 5.0729 -3.3870 4.1013 -0.5947 -3.7366 -3.6417 -1.9528 3.4359 4.1631 -3.8731 -0.2189 -1.5324 0.8383 -0.2322 -3.3636 4.9931 -0.2819 2.5322 0.6188 -1.2447 -2.4517 4.3261 -1.2979 3.9704 0.1476 -1.3195 3.6789 -2.8997 0.8378 0.4315 -3.8468 2.3567 0.3785 -5.2238 2.9243 -5.6760 4.6360 0.6919 0.2718 -0.4804 -1.2894 -1.3986 -2.2127 2.4654 -2.0111 1.9171 -1.1731 4.0125 -1.4485 0.5768 1.8173 -3.2427 2.4020
-1.8793 6.5739 -3.9910 -0.0843 6.3664 -2.3167 5.7457 0.6310 -4.0429 6.9435 0.2468 -1.9320 -4.1050 -0.8984 3.2434 -4.6855 -3.2857 3.0327 6.1504 -3.7572 0.6371 5.1147 -4.3379 2.7727 -2.0256 1.3740 0.7938 0.7792 -3.0203 5.0333 -5.2021 5.0502 -1.9033 1.8808 0.9616 -2.5137 -3.8875 6.3065 0.8589 0.0603 -5.2428 4.3246 -6.0115 5.5999 1.2932 -1.2479 -1.7571 -1.6424 -1.7190 -4.0743 0.6280 -2.1113 1.5668 -2.8902 3.2976 -3.5527 -1.2452 1.7345 -1.5945 2.3899 -2.3425 5.5358 -1.7947 4.4938 0.4241 -1.9279 -3.0021 -2.2689 1.5234 -4.4346 4.1178 0.2261 1.0440 -1.1686 -1.9104 -0.5501 0.2685 -0.7737 -2.0789 3.1812 -1.2461 3.8192 -1.4023 -0.5242 2.4775 -3.6072 1.5010 -0.7887 -2.7451 2.2866 -1.3170 5.7113 -2.8893 5.6888 -0.0704 -2.7084 -3.5726 -2.2734 2.9223 4.8488 -4.1632 1.2939 -1.8614 0.8456 -0.6121 -4.3592 4.1000 -1.2860 2.0646 -0.0992 -1.5842 -2.9546 4.1551 -1.8521 3.4688 -0.6741 -1.7229 3.7697 -3.1195 1.0880 0.3562 -3.5801 2.5481 0.3803 -3.9929 3.9804 -4.8964 5.4058 0.8324 -0.3648 -0.9281 -1.4277 -1.7898 -3.1488 1.4310 -2.0218 1.8846 -1.7048 3.5911 -2.7534 -0.3639 1.5838 -2.7911 2.1650
-4.0857 5.4956 -4.4573 -1.7170 5.9165 -3.9324 6.3497 -0.0137 -4.0089 7.5692 -0.4511 -1.9128 -4.7734 -1.0488 2.5638 -4.9840 -2.4996 0.5881 5.0987 -3.7497 3.4777 4.2999 -5.3748 1.7955 -0.8728 1.7412 0.6253 0.4552 -1.8313 5.1191 -5.6610 4.0720 -0.8802 2.7250 0.7473 -2.8838 -3.6528 6.3536 0.7108 -0.1169 -4.1887 4.8423 -5.3204 5.4536 1.9818 -0.7034 -1.6534 -1.7912 -1.5634 -3.4782 0.6053 -2.6288 0.8700 -2.4904 3.8322 -3.5829 -0.7795 1.7973 -1.0600 2.4428 -3.2044 4.9779 -2.2111 5.1726 0.1099 -1.8404 -2.8026 -1.5052 1.1629 -3.8282 4.0176 0.7451 1.6076 -1.1690 -2.0822 0.0202 0.4709 -1.2406 -2.2114 2.8928 -1.4671 4.1209 -1.3442 -0.2333 2.4171 -3.2014 1.8012 -0.8120 -2.0786 2.3061 -2.8882 4.9977 -3.6875 6.2476 -0.6036 -2.6241 -4.0768 -2.0896 1.7225 4.7690 -3.9562 2.0197 -1.1905 0.8777 -0.5708 -4.4086 3.5039 -0.5564 2.6658 -0.1341 -1.7689 -3.4608 3.5651 -1.7381 4.0087 -0.8221 -1.5772 3.8017 -2.8949 1.5356 0.2679 -2.9108 2.7812 0.1974 -3.0248 4.2676 -4.3795 5.3278 1.2127 0.1977 -0.8241 -1.6738 -1.6827 -2.4891 1.3200 -2.0774 1.5309 -1.6111 3.9182 -2.6811 0.0477 1.5633 -2.2610 2.3444

>  <OB_ATOM_TYPES> (4er2A1)
C.3 C.3 C.3 C.3 C.3 C.3 C.3 C.3 C.3 C.3 O.3 O.3 O.co2 C.2 O.co2 O.2 O.2 O.2 O.2 O.2 C.3 C.3 C.3 C.3 C.3 N.am N.am N.am N.am N.am C.3 C.3 C.3 C.3 C.3 C.3 C.3 C.3 C.3 C.3 C.3 C.2 C.2 C.2 C.2 C.2 C.2 C.2

>  <ENSEMBLE_RMSD> (4er2A1)
2.627 2.835 2.888 3.021 3.048 3.073 3.150 3.161 3.200 3.231 3.246 3.273 3.289 3.325 3.335 3.339 3.346 3.347 3.354 3.371 3.431 3.441 3.448 3.453 3.465 3.469 3.502 3.512 3.535 3.540 3.560 3.568 3.571 3.628 3.793 3.815 3.984 4.001 4.028 4.046 4.138 4.146 4.175 4.229 4.534 4.536 4.628

$$$$
