
 OpenBabel03071213D

 36 37  0  0  0  0  0  0  0  0999 V2000
  -12.1960   24.7750   37.1310 C   0  0  0  0  0
  -10.6960   25.1770   39.0450 C   0  0  0  0  0
  -15.6560   20.5910   36.6980 C   0  0  0  0  0
  -16.6380   18.6530   40.8010 C   0  0  0  0  0
   -5.9140   22.0690   35.4780 O   0  0  0  0  0
   -8.1160   24.9530   36.5630 O   0  0  0  0  0
   -7.9340   21.4980   36.5290 F   0  0  0  0  0
   -8.6720   22.5810   35.1320 F   0  0  0  0  0
  -15.1390   17.4920   39.2350 O   0  0  0  0  0
  -10.7290   20.8130   36.6500 O   0  0  0  0  0
  -13.5300   21.8720   38.0000 O   0  0  0  0  0
   -6.0850   23.4870   33.1180 C   0  0  0  0  0
   -6.8730   23.4210   31.8320 C   0  0  0  0  0
  -10.2700   19.4580   39.1440 C   0  0  0  0  0
   -7.0740   23.4350   34.1790 N   0  0  0  0  0
  -15.6320   19.7190   38.9060 N   0  0  0  0  0
  -10.5810   22.6310   38.0010 N   0  0  0  0  0
  -10.9600   18.1360   38.7770 C   0  0  0  0  0
   -4.8410   24.7240   28.2550 C   0  0  0  0  0
   -4.2110   23.7600   29.0910 C   0  0  0  0  0
   -6.1170   25.2590   28.5520 C   0  0  0  0  0
  -12.4030   18.5000   38.4260 C   0  0  0  0  0
   -4.8920   23.2880   30.2330 C   0  0  0  0  0
   -6.7500   24.8570   29.7430 C   0  0  0  0  0
  -10.7780   24.9550   37.5420 C   0  0  0  0  0
  -14.8230   19.8430   37.7090 C   0  0  0  0  0
   -6.7660   22.9560   35.3890 C   0  0  0  0  0
   -8.5480   23.7550   37.1250 C   0  0  0  0  0
  -10.1080   23.6630   37.0890 C   0  0  0  0  0
  -11.2670   20.5480   38.9520 C   0  0  0  0  0
  -12.5350   19.9370   38.5850 N   0  0  0  0  0
  -15.7140   18.5650   39.5850 C   0  0  0  0  0
  -10.8150   21.3500   37.7690 C   0  0  0  0  0
  -13.5520   20.6370   38.0640 C   0  0  0  0  0
   -6.1460   23.8760   30.5680 C   0  0  0  0  0
   -7.9720   22.7280   36.1770 C   0  0  0  0  0
  1 25  1  0  0  0
  2 25  1  0  0  0
  3 26  1  0  0  0
  4 32  1  0  0  0
  5 27  1  0  0  0
  6 28  1  0  0  0
  7 36  1  0  0  0
  8 36  1  0  0  0
  9 32  2  0  0  0
 10 33  2  0  0  0
 11 34  2  0  0  0
 12 13  1  0  0  0
 12 15  1  0  0  0
 13 35  1  0  0  0
 14 18  1  0  0  0
 14 30  1  0  0  0
 15 27  1  0  0  0
 16 26  1  0  0  0
 16 32  1  0  0  0
 17 29  1  0  0  0
 17 33  1  0  0  0
 18 22  2  0  0  0
 19 20  1  0  0  0
 19 21  2  0  0  0
 20 23  2  0  0  0
 21 24  1  0  0  0
 22 31  1  0  0  0
 23 35  1  0  0  0
 24 35  2  0  0  0
 25 29  1  0  0  0
 26 34  1  0  0  0
 27 36  1  0  0  0
 28 29  1  0  0  0
 28 36  1  0  0  0
 30 31  1  0  0  0
 30 33  1  0  0  0
 31 34  1  0  0  0
M  END
>  <MOLID> (4estA1)
4estA1

>  <SMILES_CANONICAL> (4estA1)
CC(=O)N[C@H](C(=O)N1C=CC[C@H]1C(=O)N[C@H]([C@@H](C([C@H](NCCc1ccccc1)O)(F)F)O)C(C)C)C	

>  <FINGERPRINT> (4estA1)
0000000001000000000000000000000000001001000000000111000000000000000000000001000000000001000100000000010000000001000001100000000000000000000110000000000010000000000000000001001010000000010100000000000000001000000000000010000000100000000000000000010000001100000100000110000000000110101000001000000000011000000010001100100000001000001000000000000001000000010000000000001110110000000000000000011000000000100000100000001000000000110000010010000000000001100000000001100000000000000000000000000000011000000001000100100000010000000010010100000000000000000000110000000000000000000001000100000111000000001000000000000000000100000000000000001000100001000000000010000010000000000000000011100000100100000001100001000000000011000000000000000010000011100000110111000000000000000110000000010000000000000000000000010110100000000000000000000000000000000000000000001000000000011000001001000000000100000001010000000000011100000100000000000000000000100000100100011000000000000000111010010000000001010000000000010001000000000000000010111000000000

>  <MACCS166> (4estA1)
000000000000000000000000000000000000000001101000010011000000000000000000011100100110100011110011101100010011011100001101110000000010010111111100011111111111111110111000

>  <OB_MW> (4estA1)
510.265

>  <OB_logP> (4estA1)
2.0239

>  <OB_PSA> (4estA1)
131

>  <OB_MR> (4estA1)
133.626

>  <OB_ATOMIC_CHARGES> (4estA1)
0.0018501193 0.0018501193 0.0333273071 0.0964359519 -0.1974874475 -0.2152532928 -0.1971311364 -0.1971311364 -0.2733177662 -0.2715287905 -0.2726748476 0.096152988 0.0452306764 0.0569568542 -0.1840929098 -0.1978086004 -0.202977964 -0.0077421931 -2.00191e-05 -0.0003219584 -0.0003219584 0.0634443015 -0.0042207482 -0.0042207482 0.0227428447 0.1716200779 0.2894086135 0.2362986695 0.1312272428 0.1618862604 -0.2490278119 0.2422605806 0.2601463442 0.2495668187 -0.020739357 0.3356129158

>  <MCT_HBD> (4estA1)
5

>  <MCT_HBA> (4estA1)
9

>  <ENSEMBLE_TOTAL> (4estA1)
50

>  <ENSEMBLE_COORDS> (4estA1)
-1.4807 2.4818 1.3901 -0.8539 3.1193 -0.8989 -3.7181 -1.3767 5.1265 -7.9989 -2.0735 4.8140 3.3162 0.9167 0.7361 0.0551 0.4798 -2.3208 1.8431 -1.0877 -0.2070 2.2866 -0.6437 -2.2777 -6.3775 -3.4454 5.9104 -0.9900 -0.3258 2.5569 -4.3717 -1.3112 1.9545 4.4189 1.4969 -2.5789 5.1654 2.7149 -3.0790 -0.5965 -3.2987 1.3556 3.5890 1.8726 -1.4430 -5.7603 -2.1590 4.0719 -0.7763 -0.4082 0.2453 -0.9159 -4.1400 2.5556 5.0666 3.5789 -7.2723 6.1052 2.7342 -6.7107 4.0888 4.0555 -6.4817 -2.0351 -3.7072 3.1509 6.0864 2.4205 -5.4021 4.0768 3.7289 -5.0660 -1.1654 1.9567 0.0094 -4.3294 -2.3451 4.1385 3.3172 0.6770 -0.6610 0.8057 0.8222 -1.1651 -0.1041 0.8636 0.0614 -1.7386 -2.2791 1.3300 -2.5370 -2.5951 2.5163 -6.6333 -2.6487 5.0154 -1.1283 -0.9038 1.4844 -3.7819 -2.0361 2.7562 5.0218 2.9234 -4.5464 2.0501 -0.0579 -1.0689
0.7265 2.2694 3.2214 -0.6752 3.7490 1.8155 -2.6511 -3.0018 4.8608 -7.3075 -2.2444 4.7781 2.7640 0.0276 -0.1418 -0.6056 2.8307 -0.9185 0.5454 0.2930 -1.6870 1.2323 2.1429 -2.5744 -6.4916 -3.6195 3.0024 -0.1202 -1.0044 2.3770 -3.9515 -0.9622 2.5773 3.9906 2.7566 -2.1343 5.1500 2.0102 -2.7588 -1.0265 -2.7098 -0.0535 3.5952 2.1482 -0.8731 -4.9925 -2.6002 4.4637 -0.8330 0.4392 0.6991 -1.3900 -4.0352 0.5457 4.5025 1.4668 -6.9586 5.1587 2.6591 -6.4538 4.1072 0.5044 -6.1063 -2.1953 -3.8702 1.6029 5.3639 2.8080 -5.1325 4.3157 0.6692 -4.6785 -0.2876 2.3228 2.1096 -3.7609 -3.0216 3.8343 2.6971 1.0357 -1.1343 0.5443 2.2311 -0.3341 0.1503 1.4734 0.9300 -1.8161 -1.7160 0.8024 -2.4197 -2.5357 1.8577 -6.2402 -2.9129 3.9713 -0.8262 -0.7489 1.4072 -3.4110 -2.0604 2.7052 4.9041 1.7841 -4.2078 1.2539 1.4217 -1.4141
-0.7337 2.4545 0.7217 -0.6740 1.2455 -1.4534 -4.8750 -0.8835 4.8580 -7.9290 -2.6422 1.7364 2.1947 3.1633 0.0861 2.0518 -1.3687 -0.2801 3.2193 0.9569 1.0752 3.9248 0.2376 -0.8423 -6.3062 -4.2113 2.5213 -0.8972 -0.0049 3.1587 -3.8708 -1.4313 1.7743 3.0661 1.6927 -3.1355 4.1987 2.5872 -3.5875 -0.2792 -3.0610 3.5611 2.2259 2.3757 -2.1671 -6.1461 -1.9699 3.1305 -0.0648 -0.9201 1.1908 -1.1079 -3.4363 4.7534 4.7103 2.8038 -7.8319 5.0733 1.6020 -7.1030 4.1712 3.8495 -7.1805 -2.3614 -2.9859 4.6149 4.8790 1.5358 -5.7734 3.9647 3.7804 -5.7446 -0.6272 1.1137 0.0455 -4.9077 -2.0318 3.8736 2.7876 2.2633 -0.8324 1.6341 -0.0116 -0.3778 0.5083 0.2864 0.6177 -1.2809 -2.3447 2.6500 -2.5160 -2.2827 3.4410 -6.7119 -3.0552 2.5011 -0.7460 -0.9508 2.3930 -3.7363 -1.8856 2.9109 4.2886 2.6631 -5.0688 2.8728 0.8661 -0.2368
0.5323 1.8250 3.5150 0.3820 3.8815 2.1865 -2.4276 -3.7697 4.7527 -7.0285 -2.9999 5.4021 2.3029 -0.0201 -0.2310 -0.6890 3.1667 -0.5715 -0.0757 0.5590 -1.6589 0.8315 2.3372 -2.5023 -6.4292 -3.5588 3.1584 -0.2321 -1.0504 2.2323 -3.5515 -1.0258 3.5302 4.2448 1.4344 -2.3674 4.4506 2.5914 -3.3182 -1.8279 -2.0970 -0.3007 3.3024 1.8492 -1.3398 -4.7651 -3.1607 4.7376 -1.0511 0.6993 0.9382 -2.0550 -3.5335 0.0631 5.7836 1.4953 -7.2314 6.7333 1.7388 -6.1607 4.4626 1.5590 -6.9892 -2.5317 -3.6329 1.3106 6.2926 2.0423 -4.9270 3.9858 1.9104 -5.6627 -0.1188 2.4623 2.3106 -3.6193 -3.4122 3.8940 2.2191 0.8815 -1.3193 0.4101 2.3474 -0.1979 0.0870 1.5852 1.0834 -2.2718 -1.3411 0.9560 -2.6368 -2.3980 1.9077 -6.0637 -3.2825 4.2951 -1.0664 -0.5793 1.4661 -3.2887 -2.1525 3.1081 4.8640 2.1231 -4.6661 0.8454 1.5254 -1.4033
0.8882 1.4518 3.7771 -0.1476 3.3494 2.5470 -2.9394 -3.9173 4.1370 -7.3881 -2.5548 4.8394 3.1400 4.3941 -0.3158 0.6621 1.5869 -1.0139 2.8125 2.7085 1.6312 3.0786 0.9290 0.4193 -6.9240 -3.2852 2.6116 -0.4875 -1.4020 2.3428 -3.9850 -1.0739 2.8062 3.7463 1.6562 -2.5225 3.0373 1.0910 -3.7352 -1.6159 -2.2158 -0.5961 2.9407 2.7581 -2.0255 -5.1891 -3.0678 4.1477 -0.7123 0.3773 0.8682 -2.0944 -3.6217 -0.3839 5.1789 1.3952 -7.4282 5.1698 0.1591 -6.6668 4.5309 2.4778 -6.9623 -2.7913 -3.7156 0.7565 4.5224 0.0976 -5.4894 3.8120 2.4051 -5.7023 -0.0017 1.8529 2.6296 -4.0931 -3.4418 3.2829 3.2653 3.0177 -0.6367 1.0132 2.0659 0.2757 0.4096 1.1561 1.3489 -2.1860 -1.4674 0.6116 -2.8285 -2.5094 1.4177 -6.4993 -3.0167 3.7290 -1.0302 -0.8652 1.3825 -3.6542 -2.2181 2.4929 3.8277 1.2688 -4.9813 2.5320 2.1745 0.4050
0.7935 1.5217 3.6141 -0.1912 3.2700 2.1430 -3.1142 -3.6843 4.6464 -7.5220 -2.0995 5.1211 3.1625 3.9540 -0.2322 0.4734 1.2010 -1.1777 2.9053 1.8988 1.3458 2.9078 0.4216 -0.2423 -7.0852 -3.2026 3.0459 -0.6253 -1.4477 2.5653 -4.1073 -1.0208 2.9585 3.4424 1.8022 -3.0199 2.9915 1.9777 -4.4526 -1.7528 -2.6241 -0.2621 2.6541 2.7103 -2.2036 -5.3462 -2.8057 4.5394 -0.7875 0.1046 0.8458 -2.2416 -3.9862 0.1339 6.1039 1.7309 -7.3766 5.9392 2.9227 -6.5645 5.2896 0.6756 -7.1977 -2.9419 -3.9228 1.2742 4.9786 2.9688 -5.6243 4.2517 0.7249 -6.1826 -0.0697 1.7927 2.4100 -4.2574 -3.3063 3.7323 3.1558 2.6732 -0.8423 0.9471 1.7019 0.0637 0.3367 0.9303 1.2320 -2.3109 -1.7185 0.8398 -2.9712 -2.6394 1.7699 -6.6520 -2.7708 4.1076 -1.1454 -1.0406 1.5314 -3.7959 -2.2008 2.7945 4.1147 1.8186 -5.4110 2.4702 1.6688 0.0748
-0.1691 2.6926 1.0651 -0.2457 1.6545 -1.2032 -4.9807 -0.8945 4.4287 -7.7888 -2.5617 1.0292 2.8052 3.1145 0.7577 2.1964 -1.2906 -0.2607 3.5190 0.6888 1.4448 4.2499 0.1817 -0.5338 -6.1711 -4.1334 1.8190 -0.9073 0.0169 3.1254 -3.7586 -1.3712 1.4130 3.8222 2.5911 -2.5482 3.3645 3.4270 -3.7205 -0.3081 -3.0529 3.4055 2.7489 2.5854 -1.5705 -6.1307 -1.9376 2.5911 0.0634 -0.7962 1.1747 -1.2268 -3.4985 4.5035 3.7993 1.5950 -7.5568 4.8814 2.3639 -6.9694 2.6624 1.3940 -6.8668 -2.4685 -3.0433 4.2920 4.7418 2.8920 -5.7406 2.5014 1.9828 -5.5489 -0.2242 1.4093 0.2815 -4.9469 -2.0179 3.4163 3.3137 2.2857 -0.2700 1.9266 0.1047 -0.1929 0.7863 0.3983 0.7843 -1.2414 -2.2911 2.4610 -2.5333 -2.2718 3.1534 -6.6147 -2.9918 1.8499 -0.6974 -0.8869 2.3239 -3.7093 -1.8542 2.5447 3.5047 2.6949 -5.0041 3.2353 0.8203 0.1218
-0.4019 2.6922 0.8918 -0.1757 1.9075 -1.4640 -4.2684 -1.1730 4.8997 -8.1983 -2.1433 2.4909 2.6087 3.1271 0.9433 2.1761 -1.1460 -0.5322 3.3919 0.6469 1.3565 4.2023 0.4144 -0.6418 -6.6432 -3.9536 2.6188 -0.8910 -0.3212 2.8249 -4.1523 -1.3791 1.5968 3.8676 2.9345 -2.3608 3.3882 3.5754 -3.6445 -0.4332 -3.4637 2.1574 2.7486 2.9152 -1.4336 -6.0570 -1.8577 3.4453 -0.1135 -0.7746 0.6860 -1.0249 -4.0766 3.3917 4.2020 1.4998 -7.2970 4.9084 2.7207 -6.9543 3.3032 0.9798 -6.4422 -2.2204 -3.5354 3.6586 4.6725 3.3278 -5.7772 3.0307 1.6482 -5.1815 -0.3211 1.4998 -0.0223 -4.6927 -2.1484 3.8249 3.2141 2.4498 -0.1420 1.8752 0.2396 -0.4030 0.6465 0.4492 0.4881 -1.4748 -2.4173 1.7470 -2.5302 -2.5386 2.7613 -6.8927 -2.7769 2.8526 -0.8125 -1.0549 1.8450 -3.7891 -1.9746 2.6113 3.7077 2.7626 -4.8474 3.1493 0.9442 0.0520
1.0198 1.2521 3.7851 -0.0740 3.2219 2.7310 -2.9330 -3.9846 4.0774 -7.3075 -2.3595 4.8207 2.9977 4.4745 -0.2697 0.5919 1.7108 -0.9786 2.8454 2.6851 1.6344 3.0725 0.9723 0.3219 -6.9519 -3.3748 2.6860 -0.4890 -1.4520 2.3144 -3.9573 -1.0932 2.8384 3.7194 1.8134 -2.5536 3.0035 1.2639 -3.7693 -1.6722 -2.1717 -0.6375 2.8820 2.8748 -2.0218 -5.1664 -3.0993 4.1519 -0.6934 0.3602 0.8767 -2.1472 -3.5819 -0.4453 5.2187 1.2263 -7.4289 5.1107 0.0361 -6.6049 4.6404 2.3742 -7.0332 -2.8255 -3.6989 0.7042 4.4476 0.0842 -5.4357 3.9030 2.4204 -5.7822 0.0852 1.7250 2.7024 -4.0937 -3.4699 3.2565 3.2004 3.1163 -0.6283 0.9959 2.0994 0.3252 0.4433 1.1164 1.3613 -2.2082 -1.4506 0.6020 -2.8498 -2.5066 1.3905 -6.4804 -3.0036 3.7542 -1.0300 -0.8864 1.3697 -3.6506 -2.2336 2.4888 3.8348 1.3279 -4.9991 2.5179 2.2114 0.3951
-1.1124 1.9529 -0.2920 -0.4203 0.3839 -2.1084 -4.5628 -0.4562 4.8423 -8.3220 -2.6378 3.0611 1.6805 2.9695 -0.6626 2.3151 -1.4296 0.2782 2.8621 1.2749 1.0169 3.9914 0.2943 -0.5537 -6.7234 -4.0504 4.1388 -1.4607 -0.0250 2.5556 -4.2871 -1.9314 1.8858 3.6872 1.6587 -3.2521 4.1465 3.0290 -3.7038 -0.3782 -3.0865 3.2841 2.3926 1.7419 -2.5945 -6.2216 -1.8105 3.7483 -0.1973 -1.1485 0.9682 -1.0122 -3.3682 4.6137 5.4562 3.3290 -7.7700 6.2765 2.6602 -6.7762 4.2521 3.8204 -7.4275 -2.2848 -2.9519 4.6246 5.8373 2.5377 -5.5102 3.7780 3.6892 -6.0610 -0.6800 0.5538 -0.6370 -4.8609 -1.8076 4.2330 2.5930 2.0275 -1.1871 1.7281 -0.2841 -0.3396 0.3738 0.0202 0.3129 -1.5152 -2.4512 2.4757 -2.6245 -2.3509 3.4337 -7.0106 -2.9374 3.7147 -1.0693 -1.0667 2.0387 -3.9231 -2.0400 3.0567 4.5296 3.0581 -5.1405 2.7665 0.8329 -0.2668
2.8254 1.8984 1.9692 0.6846 2.8588 1.1570 -5.4543 -0.6285 2.6945 -6.2093 -4.8767 0.7990 3.4331 1.2508 -0.8634 -0.6999 -0.4379 -0.3873 2.0271 -1.0401 -1.1981 0.6127 -0.1106 -2.5560 -5.1886 -4.9247 2.9596 -1.4321 0.7471 2.5504 -2.9224 -2.3144 1.4774 1.9409 2.7510 -3.4947 3.2600 3.4510 -3.7449 -0.7792 -1.0401 5.0161 1.7859 2.5002 -2.0708 -5.5319 -2.8906 1.8810 0.4096 -0.5750 2.0220 -2.0894 -1.0461 5.7478 5.4327 1.6917 -6.9888 5.4854 1.1144 -5.6579 4.6898 2.7891 -7.2183 -3.0943 -1.3372 4.9114 4.7897 1.6751 -4.6526 3.9383 3.3957 -6.1335 1.3510 1.6592 1.7798 -4.8931 -2.0250 2.8454 2.3676 1.2013 -1.7893 0.4254 0.4239 -0.2792 1.0734 0.3309 1.1016 -1.1734 -1.4239 3.5861 -2.6382 -1.5141 3.6250 -5.5888 -4.2595 2.0116 -0.7743 -0.2811 2.6785 -3.3981 -1.9854 2.5645 3.9712 2.8507 -4.9039 1.3634 0.1217 -1.4391
0.0327 2.0961 2.8644 -0.6959 3.6656 1.1261 -2.5119 -2.5139 5.4397 -7.1872 -2.0101 5.5167 2.5925 0.2325 -0.5222 -1.3364 2.0924 -1.4084 0.2760 -0.3100 -1.8874 0.4702 1.4559 -3.1254 -6.4223 -3.5267 3.8357 -0.2380 -0.9405 2.4965 -4.0697 -1.1269 2.8235 3.1075 2.6315 -3.1679 3.7837 1.5576 -3.9958 -1.0612 -3.1898 0.5353 2.9029 2.2389 -1.7806 -4.8840 -2.3255 5.1060 -1.0664 0.0452 0.5582 -1.2319 -4.3447 1.4772 7.1150 2.7616 -6.3940 5.7599 3.1076 -6.7835 7.3366 2.0995 -5.2447 -2.0305 -4.0069 2.4979 4.7233 2.7609 -5.9988 6.2178 1.7221 -4.3992 -0.7195 2.2212 1.5621 -3.6635 -2.8177 4.5073 2.2381 0.9505 -1.6896 -0.0572 1.7919 -0.8670 -0.2059 1.2145 0.5390 -1.9092 -2.0871 1.1761 -2.4168 -2.6880 2.4152 -6.1432 -2.7249 4.7194 -0.9739 -0.9481 1.5153 -3.4253 -2.1146 3.1765 4.9627 2.0586 -4.7475 0.7311 0.9711 -1.8760
1.1376 0.8748 3.7751 0.1852 2.9892 2.8753 -3.0908 -4.2332 3.7363 -7.1387 -2.6930 5.4635 3.3335 4.1644 0.0177 0.5807 1.6400 -0.9300 3.0113 2.1639 1.6582 3.0225 0.6330 0.1200 -7.0721 -2.6246 3.0755 -0.5670 -1.6664 2.1054 -3.9671 -1.0821 2.9668 3.9760 2.6339 -2.8032 3.5160 2.9269 -4.2147 -2.0424 -1.9950 -0.7660 2.8461 2.8643 -1.9207 -5.1375 -3.1012 4.2787 -0.7583 0.3092 0.8999 -2.6523 -3.3628 -0.6773 5.0861 0.3968 -7.2857 5.7661 1.6223 -6.9074 3.9721 0.0165 -6.6351 -3.2496 -3.5364 0.5092 5.2823 2.3800 -5.9067 3.4408 0.8418 -5.5641 0.2054 1.4875 2.7626 -4.2742 -3.4726 3.1799 3.3111 2.8641 -0.5473 1.0618 1.9234 0.3765 0.4599 0.9314 1.3765 -2.4216 -1.3564 0.5727 -3.0926 -2.4300 1.3125 -6.4740 -2.8085 4.1291 -1.1453 -0.9607 1.2854 -3.7810 -2.2044 2.4950 4.0796 1.9690 -5.2005 2.5905 1.8950 0.3869
-0.9373 2.0515 0.0154 -0.3384 0.5040 -1.8411 -5.0096 -0.3800 4.5453 -8.1861 -2.9991 2.3450 1.9206 2.8815 -0.4486 2.3296 -1.5381 0.3200 3.1562 1.1045 1.1643 4.1155 0.0890 -0.4953 -6.2680 -4.2520 3.0242 -1.3302 0.2059 2.7844 -3.9926 -1.8239 1.7556 3.8098 1.8126 -3.1225 3.5914 1.3703 -4.5514 -0.3547 -2.6596 3.9208 2.5620 1.6436 -2.3970 -6.2608 -1.9314 3.2004 -0.0433 -1.0206 1.2900 -1.1902 -2.8159 5.1567 5.1412 4.0434 -7.5128 4.0508 4.4486 -6.6446 5.7083 2.8332 -7.3617 -2.4669 -2.4998 4.9045 3.5998 3.6103 -5.6948 5.2212 1.9270 -6.3360 -0.5518 0.6446 -0.3585 -5.0293 -1.7656 3.9390 2.8200 1.9421 -1.0017 1.8230 -0.3052 -0.1810 0.5333 0.0905 0.5474 -1.3704 -2.2183 2.8620 -2.6318 -2.0873 3.6016 -6.8072 -3.1589 2.9018 -0.9322 -0.8647 2.3373 -3.8564 -1.9000 2.9771 4.2170 2.3043 -5.5237 2.9573 0.7135 -0.1221
-1.3046 2.5359 0.5449 -0.9117 2.4994 -1.8865 -4.1230 -0.5138 4.6545 -7.9181 -2.7800 4.4534 2.9929 0.2576 0.8577 0.2209 -0.2349 -2.6441 1.9077 -1.5859 -0.6981 2.7553 -0.7762 -2.5180 -6.2024 -2.7522 6.1164 -0.8866 -0.0264 2.2813 -4.2815 -1.5621 1.6880 4.4862 1.5634 -2.1288 4.8235 2.9581 -2.6076 -0.2756 -3.1227 1.8640 3.5697 1.6531 -1.0018 -5.6923 -2.2157 3.9080 -0.6039 -0.6050 0.0499 -0.5833 -3.5925 3.2549 4.5719 3.7554 -6.8068 3.6328 4.3455 -5.8703 5.5128 2.9012 -6.3664 -1.7800 -3.1399 3.6510 3.6892 4.0226 -4.5655 5.6026 2.5882 -4.9500 -1.0837 1.6470 -0.6549 -4.2930 -1.9008 4.0784 3.2887 0.3072 -0.5282 0.9398 0.3810 -1.5849 0.0171 0.6267 -0.3940 -1.4832 -2.2483 1.5136 -2.3474 -2.3299 2.6950 -6.5178 -2.5913 4.9433 -0.9721 -0.8319 1.3605 -3.6710 -1.9209 2.6947 4.7092 3.1036 -4.0847 2.2108 -0.4154 -1.3189
-1.3809 2.4665 0.5377 -0.9825 2.4368 -1.8913 -3.8383 -0.7685 4.8044 -7.9957 -2.2059 4.3953 2.9689 0.3116 0.8637 0.2175 -0.2737 -2.6421 1.9351 -1.5732 -0.6856 2.7646 -0.7489 -2.5077 -6.3299 -2.7227 6.0288 -0.8996 -0.0820 2.2836 -4.2419 -1.7013 1.6857 4.4592 1.6277 -2.1091 4.7635 3.0251 -2.6012 -0.2041 -3.1615 1.8736 3.5134 1.7049 -1.0060 -5.6954 -2.0380 3.8955 -0.6035 -0.6572 0.0526 -0.5060 -3.6460 3.2606 4.5966 3.7458 -6.8183 3.6131 4.3178 -5.9170 5.5529 2.9304 -6.3393 -1.7148 -3.2246 3.6546 3.6467 4.0196 -4.6055 5.6153 2.6432 -4.9161 -1.1380 1.5808 -0.6601 -4.2625 -2.0283 4.0826 3.2656 0.3565 -0.5218 0.9177 0.3636 -1.5831 -0.0132 0.5884 -0.3947 -1.4345 -2.3206 1.5207 -2.2981 -2.4231 2.7010 -6.5921 -2.3617 4.8877 -0.9621 -0.8917 1.3646 -3.6292 -2.0359 2.6998 4.6839 3.1438 -4.0827 2.2084 -0.3980 -1.3109
-0.7629 2.1100 1.5096 -1.1144 2.2053 -0.9270 -3.6828 -0.8202 5.2776 -7.9495 -1.8040 3.5745 2.1520 2.7337 -0.2580 0.7258 -1.2672 -1.7031 2.9391 0.1665 -0.4280 2.6879 0.0943 -2.5791 -6.4177 -3.6284 3.3850 -0.2685 -0.6249 2.9188 -3.9495 -1.4577 2.0450 2.0821 2.6008 -3.8490 3.0795 3.7092 -4.1025 -0.2819 -3.6729 2.5802 1.4657 2.7684 -2.5459 -5.6726 -1.5554 4.1417 -0.4029 -1.0273 0.6326 -0.8583 -4.1731 3.8718 6.5399 2.0503 -5.9959 5.4429 2.5836 -6.7829 6.4901 2.0930 -4.6526 -2.0031 -3.5378 4.1522 4.3708 3.1158 -6.1697 5.3361 2.6729 -3.9888 -0.9369 1.2900 0.2549 -4.2921 -1.8917 4.4016 2.2925 2.1344 -1.5332 0.7355 0.0875 -1.2694 0.1475 0.2285 0.1406 -1.3184 -2.6491 2.1066 -2.2934 -2.5848 3.2016 -6.6095 -2.4575 3.6907 -0.6143 -1.3163 1.9668 -3.5218 -1.9485 3.0894 4.3102 3.1488 -4.7178 2.1529 0.6238 -1.4385
-1.6161 2.2872 1.3269 -1.1931 3.0902 -0.9492 -3.0376 -1.4225 5.3586 -7.5237 -1.7963 5.5042 2.7158 0.2508 0.3053 -0.6432 0.4325 -2.6146 1.2867 -1.3653 -1.3483 1.8163 -0.2231 -3.1111 -5.9803 -3.5151 6.1186 -0.7473 -0.4551 2.3665 -4.2691 -1.1769 2.3169 4.3462 1.6426 -2.3654 4.7685 3.0360 -2.7761 -0.7966 -3.4168 1.1090 3.1764 1.7484 -1.5061 -5.3179 -1.8170 4.6714 -0.9517 -0.5039 0.0523 -0.9714 -4.2457 2.3466 5.9139 3.5766 -6.8646 4.5211 3.3942 -6.4987 6.8701 3.5190 -5.9205 -1.9444 -3.7427 3.1182 4.1853 3.1658 -5.2163 6.5057 3.2924 -4.5320 -1.4348 1.8590 -0.1108 -3.9510 -2.2347 4.4680 2.8046 0.4044 -1.0997 0.3077 0.7722 -1.6150 -0.3580 0.7857 -0.2398 -1.8501 -2.3180 1.2739 -2.4643 -2.5912 2.5743 -6.2002 -2.4916 5.4821 -1.1202 -0.9948 1.3308 -3.6086 -1.9464 3.0158 5.2170 3.1026 -4.1928 1.5446 -0.1025 -1.7784
-0.3489 2.6283 1.0875 -0.0804 1.4821 -1.1264 -4.8161 -0.6629 3.6382 -7.5180 -2.6961 0.4139 2.5294 3.5622 0.8370 2.8506 -0.9453 0.3688 3.7319 1.3919 1.6698 4.5163 0.8952 -0.2901 -5.8379 -4.1617 1.2733 -0.7704 -0.0220 3.2287 -3.2603 -1.7296 0.9136 3.5864 2.9403 -2.4694 2.9545 3.4527 -3.7456 -0.1894 -3.0415 3.6318 2.5524 2.8747 -1.4516 -5.7940 -1.8989 1.8186 0.4477 -0.7581 1.3920 -1.2878 -3.4900 4.5501 2.8892 0.7068 -7.0295 1.9534 0.5728 -5.9279 3.8228 1.6746 -7.0053 -2.4790 -3.0793 4.0957 2.0151 1.4194 -4.8846 3.8831 2.5964 -5.8835 -0.0840 1.3350 0.3688 -4.7454 -1.9283 2.8130 3.1734 2.7750 -0.1468 2.2788 0.3419 0.1361 1.0257 0.5200 1.0013 -0.9451 -2.3272 2.5078 -2.3451 -2.3320 2.9470 -6.3012 -3.0286 1.2172 -0.4382 -0.9030 2.4427 -3.3960 -1.9859 2.1100 3.0274 2.4635 -4.8536 3.3986 1.3577 0.3511
1.8426 3.1389 1.8091 0.5530 2.4609 -0.2091 -4.9168 -1.7336 0.3805 -4.7373 -6.1548 2.0373 3.9931 1.6891 0.3970 0.7890 -1.4738 0.7013 3.4913 -0.8230 1.2428 2.9060 -1.4990 -0.7346 -5.5164 -4.5192 3.5964 -1.7714 0.5169 1.0866 -2.4340 -2.7826 2.2905 4.1148 1.3755 -2.7245 3.9347 2.6754 -3.4796 -2.6319 1.1123 4.1023 3.0377 1.2277 -1.7569 -4.7603 -3.8553 1.4989 0.0389 0.2858 2.5258 -4.1256 1.0477 3.9602 3.2775 2.2720 -7.6933 4.6214 2.4042 -7.1599 2.2224 2.2462 -6.8598 -4.4884 -0.0488 3.2808 4.8140 2.4952 -5.8311 2.4291 2.3531 -5.4263 0.8134 2.1942 1.2499 -4.7537 -2.4259 1.7151 3.6102 0.6996 -0.5345 1.3653 -0.1931 0.4513 1.0900 0.7506 1.6269 -2.1533 -0.1522 3.3825 -3.3872 -0.7695 2.8796 -5.0570 -4.7651 2.4878 -1.3071 0.2657 2.1954 -3.4140 -2.0370 2.3216 3.6749 2.4521 -4.9274 2.8348 -0.4303 0.1172
-0.8886 1.8915 -0.2108 -0.2620 0.1630 -1.8927 -5.0969 -0.6688 3.9851 -8.2678 -3.0474 2.1559 1.9279 2.8613 -0.5064 2.4888 -1.5269 0.4190 3.2065 1.1584 1.1195 4.1924 0.1384 -0.5212 -7.6542 -2.8670 4.4582 -1.2772 0.1474 2.7421 -3.6661 -2.5900 1.6341 3.7093 1.7643 -3.2333 3.3522 1.5654 -4.6890 -0.2212 -2.4394 4.1934 2.5048 1.5696 -2.4431 -6.0498 -2.5521 2.8005 0.0687 -1.0907 1.3123 -1.1570 -2.4259 5.3663 5.2922 4.2095 -7.4376 4.0801 4.6097 -6.7465 5.8403 3.0060 -7.1932 -2.4272 -2.3257 4.9540 3.5078 3.7806 -5.8551 5.2186 2.1068 -6.2361 -0.4851 0.4584 -0.4338 -4.9463 -2.1338 3.6371 2.8114 1.9125 -1.0684 1.9273 -0.3537 -0.1604 0.6049 0.0119 0.5246 -1.1560 -2.2615 2.9922 -2.5002 -2.2016 3.5852 -7.3118 -2.8163 3.2826 -0.8221 -0.9245 2.3558 -3.6625 -2.3350 2.8391 4.1084 2.4858 -5.5772 3.0104 0.7201 -0.1522
0.7004 0.8036 3.6474 1.6416 2.9629 2.9804 -2.0593 -4.2799 3.1937 -5.8880 -3.5436 5.8674 1.9104 0.0605 -1.1142 -0.2483 3.6839 0.3839 -0.1835 1.6528 -1.6284 1.0457 3.4182 -1.8964 -6.2808 -3.4600 3.5118 -0.2882 -1.2710 1.3059 -3.2125 -1.2479 3.4999 4.1945 2.3842 -2.0647 4.9885 1.2289 -2.6384 -2.6841 -0.8952 -0.7708 3.3937 1.9282 -0.9401 -4.1088 -3.6848 4.3183 -0.8868 0.9585 1.0339 -3.2615 -2.2750 -0.8845 4.6620 1.1158 -6.9071 5.6740 1.9286 -6.2571 3.8158 0.3756 -6.1690 -3.4200 -2.8205 0.3286 5.7648 1.9455 -4.9153 3.9080 0.3986 -4.7195 0.5159 1.9873 2.7262 -3.4103 -3.6166 3.0559 2.1421 1.4118 -1.4645 0.7324 2.6615 0.2949 0.4227 1.5340 1.2741 -2.5727 -0.6869 0.7425 -2.9709 -1.9755 1.3182 -5.4756 -3.5609 4.4300 -1.1203 -0.4039 1.0607 -3.2058 -2.1593 2.6730 4.8333 1.1668 -4.1158 0.9316 2.2739 -1.1608
0.3796 0.9020 3.9582 0.8105 3.2049 3.1972 -2.9075 -4.2590 2.9339 -7.1097 -2.9762 4.5015 3.9088 4.3257 0.5656 1.0803 1.9617 -0.7578 3.2583 2.3193 2.0723 3.3293 0.8365 0.4935 -6.8369 -2.5766 2.1617 -0.2395 -1.4710 1.7635 -3.7182 -1.0284 2.5314 4.0930 2.1179 -2.2226 4.0550 2.4899 -3.6880 -1.5537 -1.4662 -1.1658 3.4589 3.1908 -1.4756 -5.0038 -3.2004 3.4535 -0.4747 0.6612 0.8723 -2.1620 -2.8317 -1.2879 2.7110 -0.5005 -6.4342 4.1144 -0.3861 -6.0817 1.8010 0.2886 -5.8358 -2.8333 -3.1496 -0.1732 4.5087 0.5213 -5.1704 2.2291 1.2861 -4.8698 0.1905 1.8829 2.8257 -4.0460 -3.4220 2.3933 3.8056 3.0637 -0.0731 1.4280 2.2301 0.5951 0.6710 1.2707 1.5222 -2.0371 -0.9930 0.2077 -2.7357 -2.1522 0.7705 -6.3285 -2.9006 3.2284 -0.8176 -0.6660 1.0418 -3.5029 -2.0780 1.9243 3.5291 1.3897 -4.5375 2.9447 2.1144 0.7597
-1.8759 2.6884 0.6826 -0.9512 3.3075 -1.5044 -1.8086 -1.9107 5.2727 -6.3482 -1.2666 6.3375 2.1789 -0.1477 0.4978 -0.6180 0.4563 -2.9608 0.7420 -1.5281 -1.3068 1.7468 -0.6303 -3.0002 -5.9513 -3.0653 4.8150 -0.5544 -0.5299 1.8711 -3.9101 -0.8217 2.9192 4.1412 0.9987 -2.1928 5.0375 2.2122 -2.2674 -1.4776 -3.2371 0.3197 3.1040 1.2497 -1.2053 -4.1961 -1.6765 5.4541 -1.4299 -0.1959 -0.2536 -1.4735 -4.2809 1.3968 5.4225 4.0302 -6.1186 6.3622 3.0162 -5.6753 4.3757 4.3637 -5.3431 -2.0389 -3.8059 2.5149 6.1938 2.4168 -4.4829 4.2058 3.7334 -4.0457 -1.5323 2.1727 -0.6958 -3.1451 -2.2956 4.6787 2.4894 -0.0232 -0.8776 0.2162 0.7141 -1.8418 -0.6239 0.9566 -0.5936 -2.2083 -2.0634 0.9771 -2.4198 -2.4929 2.3604 -5.4988 -2.1215 5.4521 -1.2923 -0.8605 0.9492 -3.2210 -1.7886 3.2461 5.0719 2.7888 -3.6363 1.2873 -0.3629 -1.7428
-1.2598 -0.0026 -1.4508 0.9702 -0.4906 -2.3642 -5.1477 -0.0962 3.9027 -7.9377 -3.4745 2.1757 1.3337 2.5169 -1.0912 2.6668 -1.0232 1.2455 2.0847 1.8421 1.4285 4.0217 1.1116 0.7781 -6.2730 -4.2542 3.7019 -1.4548 0.3278 2.1504 -3.9292 -2.2072 1.6435 4.0071 2.4974 -2.7344 4.7018 1.7984 -3.8816 -0.3498 -2.0695 4.0460 3.3020 1.4787 -1.9777 -6.2601 -2.0325 3.0020 0.0584 -1.1367 1.1706 -1.2336 -1.9758 5.2527 4.0923 3.5886 -7.7188 3.0003 2.9267 -7.0286 5.2996 3.6849 -7.1341 -2.5154 -1.8470 4.8866 3.1976 2.3983 -5.8075 5.5162 3.1066 -5.8197 0.0605 -0.6826 -1.1790 -5.0670 -1.5916 3.6882 2.6646 2.1030 -0.8323 2.1403 -0.1871 0.2246 0.6115 -0.2453 0.1690 -1.3392 -1.9878 2.8787 -2.6429 -1.7859 3.5171 -6.7373 -3.3229 3.0553 -0.9523 -0.7848 2.0423 -3.8454 -1.9017 2.8335 4.5021 2.5038 -5.1730 2.7140 1.2149 0.4000
-1.1764 2.3592 -0.8806 -1.3341 0.9421 -2.8988 -4.1265 -0.0514 4.4582 -7.9347 -2.4810 4.1485 3.0299 0.2130 0.8092 0.4455 -1.3385 -2.6707 2.0274 -1.8644 -0.3377 3.0000 -1.4852 -2.2355 -6.2774 -2.7826 5.8429 -1.2496 0.3422 1.8161 -4.0466 -1.9400 1.7512 4.3060 1.4428 -2.2285 4.7453 2.8723 -2.4464 0.1315 -2.4259 2.6627 3.2527 1.4416 -1.2261 -5.7063 -1.7665 3.8283 -0.5864 -0.9355 -0.0098 -0.2716 -2.6062 4.0956 4.3488 4.3456 -6.4413 5.5791 3.7177 -5.9951 3.2884 4.4116 -5.6169 -1.5754 -2.3435 4.2569 5.6663 3.2167 -4.7500 3.3896 3.8929 -4.2637 -1.1916 0.9451 -1.3987 -4.3132 -1.5124 4.1162 3.2350 0.1392 -0.5898 0.9981 -0.3440 -1.8179 -0.0457 0.1357 -0.8160 -1.1902 -2.0746 1.9755 -2.1536 -1.9484 3.0725 -6.5578 -2.3742 4.7223 -1.0150 -0.7402 1.2898 -3.5196 -1.8345 2.8591 4.5281 3.3070 -3.8502 2.3002 -0.8761 -1.2310
-2.2048 1.7098 0.8947 -1.6667 1.8978 -1.4909 -4.3453 -2.9546 2.1227 -6.8618 0.3465 3.5495 2.5962 0.7475 0.7922 -0.3031 -0.9701 -2.1552 1.8247 -1.6115 -0.2278 2.2876 -1.0392 -2.2649 -5.4672 0.2151 1.6136 -0.6652 -0.2395 2.8193 -3.4784 -2.4654 5.2333 3.8738 1.6219 -2.3500 4.2166 3.0128 -2.8357 0.1770 -3.3307 2.4939 2.7838 1.7126 -1.3900 -4.9560 -1.0524 3.4970 -0.7667 -1.0403 0.6406 0.2309 -3.7369 3.9356 4.6757 3.5990 -7.0501 3.3879 3.7781 -6.4045 5.7340 3.1806 -6.3334 -0.8664 -3.3241 4.5836 3.2506 3.5212 -5.0911 5.5929 2.9323 -4.9082 -1.7409 0.9449 -0.3232 -3.8427 -1.7885 2.9442 2.7879 0.4992 -0.5897 0.3812 -0.0714 -1.2953 -0.4440 0.1969 -0.0397 -1.1520 -2.5775 2.3931 -1.7038 -2.6126 3.7532 -5.6934 -0.1526 2.7607 -0.8316 -1.1492 2.0143 -3.0152 -2.3197 4.1015 4.3947 3.0748 -4.3117 1.8099 -0.5546 -1.0818
-1.6327 1.0963 -1.4364 -0.2499 0.1391 -3.2260 -4.5111 -0.0024 3.6755 -7.9627 -2.8501 3.4452 2.3489 1.6620 0.8021 1.7314 -1.8848 -1.8670 2.6670 -1.1004 0.7551 3.9962 -1.0051 -0.9561 -6.8845 -1.7558 5.2743 -1.1523 0.2296 1.6669 -3.7728 -2.2648 1.4746 2.9583 2.4828 -1.8865 3.6466 3.6647 -2.5352 0.1990 -2.2769 3.1379 3.9326 1.8202 -1.0354 -5.7473 -2.0520 3.2654 -0.0829 -1.2229 0.2019 -0.4397 -2.2582 4.4944 4.1429 3.3466 -6.7769 4.9784 2.5773 -5.8729 3.1788 4.1459 -6.2869 -1.7640 -2.0846 4.3902 4.7946 2.6694 -4.5434 2.9858 4.2525 -4.8516 -0.7342 -0.0581 -1.8099 -4.4665 -1.5146 3.6642 3.2851 1.0106 -0.0267 1.7278 -0.5653 -1.3372 0.3546 -0.2352 -0.7627 -0.9936 -2.1317 2.1903 -2.1434 -1.9327 3.0767 -6.8192 -2.1634 4.1207 -0.7688 -0.8920 1.3537 -3.4533 -1.9619 2.6244 3.7443 3.5247 -4.0123 2.9068 -0.4088 -0.3906
2.0773 1.8222 2.3683 1.2242 3.0488 0.3800 -3.0102 -3.5353 0.9680 -4.4569 -5.8185 4.8200 3.4295 0.1056 0.3085 -0.8856 0.0355 -1.0261 1.4020 -1.5815 -0.1498 1.1520 -0.9232 -2.2022 -5.7798 -3.9113 4.2466 -0.7011 0.5068 3.7490 -2.4728 -2.2216 3.9332 3.9341 1.1505 -2.7621 4.3334 2.5227 -3.2541 -3.7158 1.5389 2.2416 2.9637 1.3283 -1.6962 -3.8295 -4.3738 3.0642 -1.0979 0.7095 1.4742 -4.6318 0.7708 1.3320 4.9333 2.8491 -7.4763 3.5948 2.8229 -6.9150 6.0043 2.7306 -6.6714 -4.4428 -0.5482 1.4749 3.4235 2.6729 -5.5894 5.8206 2.5828 -5.2381 0.8995 2.0486 1.4571 -3.8278 -3.2172 2.1991 2.8530 0.0710 -0.9819 0.3563 0.4997 -0.5096 0.2732 0.7430 1.0001 -2.9676 0.4306 2.9853 -3.4387 -0.8151 2.3780 -4.7881 -4.5959 4.0257 -1.4686 0.5494 2.7900 -3.1798 -2.0573 2.9381 4.5802 2.5374 -4.7187 1.4399 -0.4789 -0.9430
-1.2607 2.6470 -0.6781 -0.5878 1.2560 -2.6398 -2.4527 -2.5294 5.6183 -6.8302 -0.9138 6.2626 1.6836 2.9633 -0.3770 1.1711 -1.5454 -0.3254 2.1206 0.7854 1.0912 3.3080 -0.1750 -0.4505 -6.6745 -2.6441 4.6210 -0.7330 -1.1536 2.2349 -3.9667 -0.8328 3.2123 3.7689 1.9331 -2.8899 3.7056 1.8086 -4.3951 -2.0759 -3.6473 0.5548 2.4104 1.8743 -2.3801 -4.7419 -1.7987 5.6042 -1.3273 -0.7408 0.0336 -2.2370 -4.6898 1.6214 6.5082 4.1880 -6.5804 5.2543 4.7530 -6.1161 6.8265 2.9165 -6.2792 -2.7285 -4.1437 2.7412 4.4061 4.0042 -5.3886 5.9052 2.1025 -5.5057 -1.0820 1.2551 -1.2189 -3.7681 -2.5780 4.8730 2.4670 1.9263 -0.9329 0.9782 -0.1927 -0.7307 -0.3810 0.3276 -0.2458 -2.5824 -2.3685 1.2313 -2.9049 -2.7865 2.5986 -6.0998 -1.8943 5.4017 -1.4454 -1.3640 1.2589 -3.5773 -1.9672 3.4923 4.7484 2.6285 -5.0637 2.1952 0.5964 -0.2532
2.4682 1.7085 3.2270 2.6942 3.0311 1.1822 -2.4587 -2.6338 0.1551 -4.5876 -6.0139 2.6629 1.2445 -1.6084 -0.2976 -0.1331 2.6714 -0.2533 -0.9558 -0.1140 -0.4806 -0.2572 0.9708 -2.2185 -5.5750 -3.8477 2.8733 0.3645 -0.4843 3.6879 -2.0539 -2.7348 3.4119 2.3585 -0.0290 -3.2665 3.7578 0.1025 -3.8211 -2.5814 1.5111 3.4300 2.4332 -0.2104 -1.8266 -3.5948 -4.1089 1.6789 -0.3020 0.9332 1.9737 -3.6424 1.3319 2.3811 4.5778 3.5037 -6.2872 5.1925 3.3558 -4.9807 3.6826 2.5959 -6.7154 -3.6767 0.0616 1.9547 4.8739 2.3071 -4.2006 3.3611 1.4471 -5.8862 1.7152 2.2707 2.0449 -3.3500 -2.7179 1.3723 1.1400 -0.6930 -1.3737 0.7086 1.5305 -0.1586 0.9604 1.1714 1.3050 -1.9512 0.1175 3.5236 -2.6899 -0.6909 2.5504 -4.6670 -4.5393 2.4272 -0.4994 0.1461 3.0844 -2.6369 -2.0759 2.5504 3.9204 1.3139 -4.6690 0.1596 0.4201 -1.0412
2.3262 1.3944 1.7905 1.1137 2.8430 0.1623 -3.6268 -3.3801 1.1416 -4.4625 -5.8182 5.0734 3.2378 -0.2933 -0.5245 -1.2565 -0.0562 -1.1169 1.0654 -1.7683 -0.8286 0.5442 -0.8629 -2.7301 -5.5804 -3.7079 4.9825 -0.2951 0.1461 3.5893 -2.3606 -2.3195 4.0230 2.8299 1.2516 -3.5802 3.0503 2.6697 -4.0542 -3.3402 1.6295 2.6098 2.5221 1.2950 -2.1625 -4.0470 -4.2825 3.3282 -1.0325 0.4643 1.4144 -4.4723 1.0202 1.8331 6.6280 3.1255 -6.3557 5.3339 3.0036 -7.0023 6.7188 3.0793 -5.0146 -4.4481 -0.3163 1.9299 4.2231 2.8424 -6.2613 5.5191 2.9187 -4.2128 0.9981 1.7279 1.1660 -4.1133 -3.0714 2.5405 2.4511 -0.0693 -1.6781 0.0639 0.3658 -0.7909 0.2441 0.4871 0.7247 -2.6455 0.4068 3.2147 -3.3718 -0.7446 2.6741 -4.7811 -4.4853 4.4746 -1.1965 0.3275 2.7741 -3.1957 -2.0303 3.1646 4.3217 2.7872 -4.8123 1.0346 -0.5795 -1.4862
0.6367 1.3698 4.9274 2.0725 3.1613 4.0609 -2.1445 -3.8448 0.1381 -5.1661 -5.6053 3.2757 4.3560 3.3155 0.3115 0.8201 2.5712 0.2157 3.6470 1.5413 2.1749 2.5608 0.2693 0.7954 -5.9766 -3.6617 2.1460 -0.2656 -0.5512 0.8946 -2.8550 -2.0028 2.7920 3.1573 0.9461 -2.0663 2.0084 0.8948 -3.0491 -2.8296 1.2852 0.0142 3.0785 2.2187 -1.3713 -3.7748 -4.3507 1.8370 -0.5925 1.4038 2.1035 -3.6053 0.4091 -0.9243 3.1215 -0.0176 -7.0784 2.5242 -1.0243 -6.2199 3.3630 1.2168 -6.6022 -3.6732 -0.8421 -0.4510 2.2138 -0.7252 -4.9457 3.0098 1.5466 -5.2327 0.8155 2.3656 3.8044 -3.3813 -3.3613 0.8609 3.7365 2.1026 -0.0840 1.5991 2.3464 1.3771 0.7887 1.6444 2.4689 -2.5032 0.3451 1.1788 -2.9824 -0.9650 0.7330 -5.0472 -4.4320 2.3564 -0.9999 0.3148 1.3579 -3.0592 -2.0602 1.5795 2.4763 0.6078 -4.4294 2.8707 1.5681 1.0507
-0.3709 0.1617 -2.5933 0.7883 -2.0257 -2.6075 -5.6417 -0.1643 2.2738 -7.1861 -4.3298 3.6123 1.7338 2.1613 0.5761 2.5978 -2.1203 -0.2525 2.6828 -0.2078 1.7609 4.3855 -0.2709 0.4182 -5.0670 -3.8204 4.5916 -1.7609 0.2955 0.5902 -3.4829 -2.5472 1.7003 3.1070 2.0891 -2.0233 4.1839 1.9544 -3.0771 -0.5229 0.0306 3.5229 3.7745 2.2128 -0.7387 -5.9091 -2.4741 2.8927 0.1069 -1.0854 0.6638 -1.6224 0.6143 4.3588 3.3628 3.6730 -6.9063 2.9226 2.3283 -6.5830 3.9708 4.4253 -5.9713 -2.8070 0.1004 4.0043 3.1444 1.8228 -5.3558 4.2320 3.8719 -4.6541 0.0646 -1.0130 -1.7579 -5.0579 -1.3175 3.0590 2.9970 1.5971 0.3128 2.2863 -0.7531 -0.4919 0.7771 -0.5531 -0.5006 -1.2608 -0.9508 2.6068 -2.6771 -0.7831 2.9570 -5.9384 -3.5232 3.7832 -1.0292 -0.4907 1.1836 -3.6765 -1.6318 2.5021 3.8204 2.6268 -4.3507 3.0726 0.0969 0.4935
0.9257 -2.2174 0.0267 2.6699 -1.7073 1.6937 -3.0859 -3.0954 0.3674 -5.5993 -5.2465 3.7134 2.5367 3.6319 -0.3730 1.3664 2.2849 1.9510 4.0569 2.1240 1.2062 3.7033 0.3042 0.0905 -6.3280 -3.0163 3.2562 -0.3819 -0.0833 3.5586 -2.9910 -2.0128 3.5277 2.1992 0.9132 -2.5452 1.6471 1.3729 -3.8739 -2.7357 1.8945 1.7766 1.6216 1.7296 -1.4928 -4.4248 -3.8568 2.2106 -0.3960 0.3902 1.2854 -3.6753 1.4178 0.7055 4.6877 1.6895 -6.8648 3.9249 0.4645 -6.7052 4.4574 2.7387 -6.0555 -3.8956 0.1004 0.8189 2.9890 0.3746 -5.7434 3.4329 2.6509 -5.0308 1.2666 -1.3896 1.2433 -4.0480 -2.6809 1.4585 2.7147 2.2674 -0.7066 1.9867 1.0912 1.4993 0.9802 0.0754 0.9742 -2.4399 0.6152 2.5616 -3.1594 -0.4409 1.8483 -5.5194 -3.9118 3.0436 -0.9647 0.2746 2.5375 -3.3536 -1.7010 2.3924 2.7373 1.5105 -4.8720 3.0945 1.4440 0.5163
2.5000 -1.0227 1.4116 2.5683 1.0698 2.7311 -3.0214 -4.6551 2.0824 -4.4955 -4.4047 6.5622 0.4394 0.5836 -2.1777 0.8572 3.0557 1.4825 -0.9209 2.4358 -0.6872 0.6235 3.9333 -0.9487 -5.7997 -3.1381 5.0113 -0.8719 -1.6367 0.6199 -2.5273 -1.8908 3.8376 2.4018 2.5673 -3.7717 3.7772 3.1770 -3.9297 -3.4934 0.1383 0.1594 2.2718 2.1058 -2.3977 -3.8570 -4.2016 4.2956 -0.5970 0.5616 1.3262 -4.6158 -0.8435 -0.0013 6.5655 0.7189 -6.0546 6.0820 0.3271 -4.7434 6.1165 1.8494 -6.6284 -4.5310 -1.8111 0.9213 5.1876 1.0972 -4.0991 5.1544 2.6842 -5.9308 1.6849 0.1106 1.9759 -3.8393 -3.7124 2.9357 0.8598 1.9338 -2.1194 1.1251 2.1171 0.4479 0.7794 0.7090 0.9165 -2.7754 -0.3640 1.4142 -3.4239 -1.6420 1.7220 -4.8150 -3.8385 5.2154 -1.3229 -0.5848 1.0607 -3.2007 -2.3312 2.9057 4.6902 2.3135 -4.7240 0.4235 2.5883 -0.8215
1.1343 -2.3937 -0.0985 3.3756 -1.9562 0.7853 -4.6529 -2.2709 0.0372 -5.6657 -5.3030 3.4989 2.7784 3.7175 0.0299 2.3171 1.7474 2.2928 4.5759 1.9255 0.6623 3.8099 0.4122 -0.6813 -5.9853 -3.0050 4.0742 -1.1940 -0.4544 0.1541 -2.6176 -2.5743 2.6171 1.3716 1.3812 -2.2484 1.4129 2.3434 -3.4144 -2.1930 1.6967 2.3357 1.3237 2.1315 -1.0052 -5.0390 -3.5704 2.0239 0.3758 0.0094 1.8004 -3.6541 1.7683 2.0025 4.3124 1.1848 -6.3403 4.7219 1.8114 -5.0964 3.0103 0.9469 -6.5794 -4.1666 0.5384 1.8596 3.7980 2.1634 -4.1848 2.0127 1.3152 -5.5906 1.9092 -1.6599 0.9725 -4.7573 -2.2363 1.5455 2.6802 2.4562 -0.6060 2.6909 0.7494 1.3605 1.5475 -0.1832 0.9746 -1.9177 0.1918 2.3747 -3.1968 -0.4241 2.0162 -5.5967 -3.8294 3.2552 -0.9036 -0.1191 1.2978 -3.4258 -1.7863 2.1246 2.3917 1.8907 -4.4353 3.4161 1.3850 0.1853
1.8455 -1.8140 1.0273 3.3923 -0.6022 2.5024 -4.1135 -3.1952 -0.1701 -4.8239 -5.6004 3.8162 2.1364 4.1502 -0.4357 1.3121 2.9426 2.1478 3.9442 3.2252 1.2500 3.9478 1.2249 0.4258 -5.6377 -3.3539 3.8839 -0.8910 -0.6310 0.1690 -2.4642 -2.4210 2.6169 2.1786 0.9665 -2.0050 1.5409 0.9859 -3.3748 -2.9052 1.6467 1.2683 1.5222 1.9680 -1.1826 -4.4619 -4.1082 2.0227 -0.0243 0.6612 1.8929 -4.1800 1.2397 0.5907 4.3093 0.8632 -6.6387 3.1496 -0.0092 -6.6018 4.5301 1.7333 -5.6374 -4.3806 -0.0791 0.7154 2.3080 0.0322 -5.5531 3.6037 1.8016 -4.5227 1.9603 -0.7012 2.0427 -4.4231 -2.8709 1.2749 2.5462 2.8017 -0.5821 2.1445 1.8485 1.8052 1.3617 0.5792 1.4883 -2.3726 0.3268 1.8326 -3.3430 -0.6783 1.3910 -5.0390 -4.2265 3.2664 -1.0368 0.0531 1.1767 -3.3167 -1.9900 1.8386 2.5538 0.9614 -4.4623 3.1261 2.2691 0.7208
1.4200 -2.3451 0.1425 3.6584 -1.5095 0.6839 -4.3898 -2.5657 0.3681 -5.6566 -5.8309 3.0975 1.5754 4.1097 -0.7635 3.0825 1.0224 2.5900 1.0834 2.8252 1.4551 3.1900 3.3495 1.4723 -6.9419 -3.9914 2.2745 -1.1386 -0.4595 0.2669 -2.2732 -2.6666 2.8774 2.9243 1.2218 -2.1425 3.5745 2.1282 -3.1683 -2.1684 1.6237 2.4833 1.7799 1.8629 -1.5122 -4.6255 -3.8182 2.4282 0.4850 0.1163 1.8270 -3.6546 1.5784 2.2860 3.2916 0.8383 -7.2414 4.0755 0.0844 -6.2798 2.6250 1.9391 -6.8509 -4.0799 0.3114 2.1950 4.1354 0.4847 -4.9969 2.6859 2.3690 -5.4649 2.1940 -1.4041 1.0355 -4.4685 -2.4925 1.8771 2.2598 2.8765 -0.5926 2.6681 1.0881 1.2330 1.6304 0.0071 0.9488 -1.7773 0.1441 2.5263 -3.0283 -0.5723 2.2666 -5.8408 -4.4491 2.5562 -0.8076 -0.1045 1.3932 -3.1545 -1.9451 2.4094 3.3900 1.6572 -4.5660 2.2760 2.5162 0.8852
2.3627 1.1130 4.6197 1.7400 3.3241 3.6865 -1.9199 -2.0323 -0.8263 -4.1282 -6.0123 0.4022 3.8708 2.9941 -0.0746 0.3093 1.9220 0.3835 3.5308 1.0190 1.6851 2.2311 -0.1428 0.3920 -5.3841 -4.0194 0.8066 -0.6386 -0.7125 4.2467 -2.1841 -2.8211 2.3376 2.3291 0.8998 -2.4708 1.4208 1.1886 -3.6441 -3.3142 1.2794 3.0582 2.2950 2.0534 -1.5911 -3.1837 -3.8753 0.0624 -0.5454 0.9539 2.6397 -3.8953 1.3099 1.6739 3.3207 0.2578 -7.3610 2.3339 -0.6370 -6.7834 3.6430 1.4037 -6.7348 -3.6342 0.1664 1.0260 1.7479 -0.3274 -5.6129 3.0043 1.7435 -5.4766 1.3059 1.8929 3.8807 -3.0355 -2.4389 0.1100 3.1980 1.8140 -0.4816 1.3614 1.8364 1.3315 0.8853 1.1646 2.6184 -2.6664 -0.1063 3.1261 -2.8715 -0.6831 1.7958 -4.3298 -4.5313 0.4501 -1.1782 -0.0022 3.4012 -2.6581 -2.0270 1.5244 2.1101 0.9016 -4.9271 2.5672 1.1310 0.7258
1.8859 -0.2804 3.7576 2.8359 1.9777 3.9115 -2.2613 -3.9314 0.1504 -4.6473 -5.3957 3.9712 1.7893 0.6620 -0.7613 0.9664 3.8059 2.1902 -0.0114 2.7561 -0.2709 1.5854 4.2172 -0.3375 -5.8126 -3.8364 2.5844 -0.2141 -0.6984 0.6464 -2.4693 -2.1290 2.9083 3.9496 2.2885 -2.3651 4.3233 0.8824 -2.7899 -2.8045 1.2137 0.2045 3.5304 2.2815 -0.9705 -3.6215 -4.4313 2.0740 -0.2755 1.1831 2.0094 -3.7403 0.3725 -0.6123 2.4135 -0.3714 -6.4145 1.6858 -0.3572 -5.1587 3.6963 0.0306 -6.4539 -3.7745 -0.8826 -0.1446 2.2949 0.0573 -4.0336 4.3555 0.4744 -5.2378 1.6137 1.1851 3.5146 -3.3516 -3.4289 1.0694 2.1019 2.0269 -0.9495 1.5722 2.7364 1.4774 1.1543 1.3998 2.0809 -2.3421 0.2527 1.3034 -2.9198 -1.0390 0.9226 -4.7855 -4.4657 2.8084 -0.8330 0.1677 1.2555 -2.8812 -2.1521 1.7486 3.6775 0.5077 -4.0765 1.3136 2.9203 -0.0118
3.3463 -0.0324 3.0072 3.0972 2.4113 3.2777 -2.4996 -1.5432 -0.6602 -4.1452 -5.8549 0.2280 0.4171 -0.4858 -0.4154 0.7954 3.3489 1.7948 -1.0352 1.6619 0.4335 0.1486 3.0618 -0.7204 -5.2468 -4.0809 1.3884 0.3549 -1.2144 3.9207 -1.6563 -2.9487 2.2090 1.8495 1.5151 -2.8389 3.2389 1.7470 -3.3826 -2.5484 0.8422 4.0537 1.9701 0.9581 -1.5033 -3.2933 -3.6472 0.2013 -0.0206 0.8346 2.9062 -3.4925 1.1207 2.9195 3.7332 0.5364 -7.4566 3.6110 1.9382 -7.1001 3.6409 -0.4109 -6.5060 -3.4274 0.1476 2.0007 3.4282 2.2926 -5.8155 3.4542 -0.0282 -5.1175 2.3672 1.0961 3.1927 -3.1938 -2.2344 0.4902 0.6268 0.7942 -0.9813 1.1592 2.1246 1.1686 1.2252 1.0022 2.1962 -1.9080 -0.4875 3.6459 -2.4803 -0.7957 2.3334 -4.3141 -4.4383 0.6782 -0.4067 -0.3473 3.4988 -2.3667 -2.0513 1.7525 3.3441 1.2717 -4.7857 0.2268 1.8956 -0.0136
2.1443 -2.2548 0.3532 4.1375 -0.8879 0.7636 -4.2247 -2.1792 -0.4163 -5.5394 -5.7527 2.3605 0.4485 2.3381 -0.9317 2.9857 1.4241 2.7268 0.6261 2.7226 1.7186 2.5341 3.7394 1.5833 -5.7091 -3.5989 3.3814 -0.8939 -0.2106 0.1634 -2.2933 -2.9392 2.1297 2.9664 1.7832 -1.9217 3.8480 2.0476 -3.1206 -2.0039 1.3071 2.7862 2.7523 3.0527 -1.2470 -4.7159 -3.8140 1.2872 0.6464 -0.0693 1.8946 -3.4808 1.3756 2.5348 2.4296 0.3686 -6.7917 3.5986 -0.1708 -6.1210 1.7628 1.4057 -6.2541 -3.9392 0.1940 2.1014 4.0081 0.3561 -4.9535 2.2193 1.9913 -5.0059 2.7051 -1.1226 1.1821 -4.4025 -2.4211 1.0651 1.5782 2.9981 -0.4013 2.5535 1.4089 1.3749 1.8197 0.1099 1.0635 -1.6602 -0.1501 2.4636 -2.9186 -0.7201 1.9711 -5.3501 -4.2704 2.4210 -0.6253 -0.1495 1.3586 -3.1048 -2.0813 1.7818 3.2810 1.4686 -4.3653 1.8164 2.7010 1.0636
3.0569 -1.4566 1.8431 4.1099 0.4604 2.9793 -4.0733 -1.3747 -0.8402 -4.4556 -5.9251 0.3268 1.0042 3.7304 -0.5327 0.9724 2.9595 2.2878 3.2431 3.8738 0.9482 3.8673 1.8564 0.4730 -4.9631 -4.4220 2.1143 -0.8433 0.4839 0.6988 -1.9239 -2.6676 1.2712 2.2173 0.7359 -1.8874 1.3536 0.0771 -2.9377 -2.4045 1.0073 3.4954 1.3411 1.4077 -0.9488 -4.1711 -3.5927 0.0888 0.4667 0.3537 2.6126 -3.8386 1.0238 3.0560 3.0448 0.7208 -6.8117 3.2849 -0.5147 -6.0881 2.2600 1.6740 -6.2784 -4.0817 0.0179 2.2058 2.7320 -0.7038 -4.8768 1.6603 1.4707 -4.9721 2.7993 -0.2199 2.6687 -4.1391 -2.1896 0.4323 1.9428 2.6703 -0.5756 2.0754 2.1325 1.9716 1.7460 0.6444 1.9984 -1.8333 -0.2268 2.7883 -2.9428 -0.7140 1.9609 -4.5746 -4.5769 0.9625 -0.7057 0.2382 1.8920 -2.8946 -1.9099 1.2608 1.9039 0.3365 -4.2911 2.7633 2.6191 0.7040
2.3971 -0.5160 3.7584 3.2147 1.5451 2.7297 -3.6375 -3.4108 3.1785 -2.6487 -4.7186 -1.2152 0.4731 -0.7158 -0.7366 0.5449 2.9981 1.7314 -1.1698 1.2239 0.1484 -0.0270 2.8039 -0.7965 -1.3118 -2.9152 -0.4024 -0.3111 -1.7558 3.2760 -4.4972 -1.3298 0.7921 2.0845 1.4684 -2.8398 3.5296 1.5160 -3.2771 -2.5334 0.7614 4.4381 2.0535 0.8923 -1.5067 -3.1338 -3.6535 0.8383 -0.3797 0.4899 2.6962 -3.5061 1.5249 3.5868 4.1714 1.0027 -7.4737 3.5315 -0.0387 -6.6910 4.5174 2.1656 -6.8935 -3.8631 0.8048 2.5148 3.3003 0.1509 -5.3800 4.2707 2.3703 -5.4771 1.9729 0.8153 3.1841 -2.9737 -2.7786 1.9765 0.6686 0.6146 -1.1765 0.9233 1.7885 1.0916 0.9278 0.6313 2.0881 -2.3404 -0.5414 3.6551 -3.2006 -0.4036 2.4718 -2.2665 -3.6621 -0.2292 -0.9049 -0.6840 3.1867 -3.6464 -1.4496 1.6747 3.6741 1.4080 -4.7508 0.0964 1.5974 -0.1712
2.0335 -1.1198 2.6984 2.7303 0.8115 4.0505 -2.8201 -4.0016 0.0912 -5.7123 -4.6483 3.7430 2.4956 4.0154 -0.6898 0.8520 3.5344 1.6614 3.6100 4.0343 1.7401 4.0578 1.9161 1.7268 -6.3436 -2.8538 2.2958 -0.0978 -0.8876 0.4569 -2.8384 -1.8172 2.6087 3.3895 1.1758 -1.8528 2.7521 -0.0641 -2.4372 -2.3561 1.1636 -0.4636 2.5330 1.6294 -0.7722 -4.3233 -3.9603 1.9624 -0.1237 1.0607 1.7206 -3.0940 0.2542 -1.4004 2.0484 0.0782 -6.6532 1.2723 0.9014 -5.7438 3.0341 -0.7046 -6.1796 -3.3676 -0.9141 -0.8051 1.5296 0.8725 -4.4241 3.3144 -0.7349 -4.7549 1.6498 0.2698 3.1494 -3.8211 -3.1691 0.8613 3.1090 2.8327 -0.2053 1.8169 2.5701 2.0379 1.3042 1.1363 1.9511 -2.1799 0.3064 0.7936 -2.8457 -0.9604 0.4671 -5.5227 -3.7141 2.5906 -0.6942 0.0622 0.9543 -3.1244 -1.9328 1.4161 2.5991 0.0308 -3.9113 3.1334 2.8271 1.3162
0.5260 -1.2881 -1.7465 2.9660 -1.5370 -1.7464 -4.6829 -0.9041 0.3981 -6.6974 -4.6226 0.8877 3.3815 3.7321 1.4003 3.7629 -1.0469 1.3452 2.5266 1.4390 2.3721 4.6585 1.2816 1.9951 -7.2368 -2.6515 2.1289 -1.0156 0.2672 0.4135 -2.3772 -2.8986 1.4901 3.0891 2.4898 -1.7639 2.2528 3.1144 -2.8555 -0.7770 0.4904 3.6150 2.4107 2.6514 -0.4879 -5.0403 -3.0508 1.4748 0.9703 -0.5785 1.2695 -2.1872 0.8475 3.9815 1.4245 0.6845 -6.2805 2.6240 1.5011 -6.2253 0.5890 0.6465 -5.2276 -3.0557 0.0499 3.3459 2.9051 2.2153 -5.1195 0.8842 1.4288 -4.0409 1.7475 -1.4094 -0.8654 -4.4868 -1.7292 1.6503 3.4359 2.6053 0.5374 3.2453 0.0427 0.5969 1.8204 -0.2670 0.1396 -0.9534 -0.6808 2.6447 -2.4041 -0.8299 2.5140 -6.3841 -3.3277 1.5663 -0.3718 -0.2627 1.3126 -2.9971 -1.9096 1.8812 2.0057 2.1685 -3.9764 3.4412 1.3384 1.3751
2.1114 2.0669 4.4723 2.5290 3.8273 2.8243 -1.2174 -2.0252 -0.5762 -2.9986 -6.0687 -0.1699 1.3266 -0.7805 0.7001 0.4402 3.5116 0.6126 -0.3805 1.0849 -0.3564 1.1889 2.0390 -1.5028 -3.8372 -4.2097 -1.4161 -0.0620 -0.1292 4.1293 -1.6425 -2.5831 2.6199 3.5841 0.4703 -1.7887 3.1671 -0.6436 -2.7288 -3.0481 1.4502 3.0183 3.1763 0.2283 -0.4153 -2.4576 -3.8467 0.4211 -0.3282 1.4811 2.4789 -3.6233 1.3376 1.6352 1.4252 1.0858 -6.2397 0.5930 0.6657 -5.1267 2.7566 0.9019 -6.1928 -3.2644 0.1784 1.0667 1.1537 0.0995 -4.0428 3.3636 0.2989 -5.0198 1.5231 2.8037 3.2938 -2.3693 -2.4088 0.3232 1.7347 0.0837 -0.3427 1.2334 2.3462 0.8057 1.0564 1.8207 2.2268 -2.2323 0.1613 3.1566 -2.4210 -0.5392 1.8841 -3.1620 -4.6144 -0.4770 -0.7552 0.4705 3.3114 -2.1078 -1.8800 1.7223 2.5973 -0.0652 -3.9757 0.9468 1.3809 -0.3310
1.8304 -2.0319 -1.2744 3.9771 -0.8626 -1.3136 -4.6765 -0.2317 -0.1997 -5.7696 -4.7979 0.1529 2.8348 4.2433 1.1967 3.7844 -0.2763 2.2866 1.7657 1.8640 2.3721 3.8771 2.3039 2.6064 -5.2524 -3.7218 2.2237 -0.4797 0.6494 0.2862 -2.2421 -2.3112 0.2859 2.3374 2.6487 -1.6564 1.2216 2.8077 -2.6634 -0.8522 0.2775 3.4498 1.7748 2.7613 -0.3224 -4.9276 -2.5917 0.2168 1.1781 -0.6864 1.2212 -2.2842 0.6333 3.7198 1.0632 -0.5237 -5.3416 1.9977 0.5646 -5.5664 0.2224 -0.4876 -4.2925 -3.0863 0.0749 2.8033 2.0314 1.6080 -4.7182 0.2589 0.6371 -3.3756 2.8713 -1.3570 -0.4093 -4.4086 -1.3620 0.7669 2.8803 2.9550 0.5988 3.3283 0.5197 1.2053 2.2689 -0.2171 0.3961 -0.9519 -0.6778 2.2585 -2.3632 -0.6357 1.8720 -5.2986 -3.6601 1.0009 -0.0895 -0.1409 1.1387 -2.9075 -1.5099 0.9429 1.1460 1.6304 -3.5650 2.9402 1.9044 1.6972
3.3484 -0.7900 -0.8850 4.3727 1.1509 0.2003 -2.9689 -3.2491 0.2647 -5.1017 -0.0007 -1.7515 -1.3737 3.3452 0.8546 2.5906 1.4691 2.8748 -0.2490 1.5278 2.3515 0.8067 3.3540 2.8598 -3.0349 -1.0357 -2.3579 0.3883 -1.6139 -0.4870 -3.3973 -0.9752 2.5522 -0.2768 1.7518 -1.2024 -0.2936 1.9017 -2.7074 0.8010 -2.9528 2.7645 0.4605 2.8778 -0.6511 -3.6827 -0.9628 -0.1241 1.2557 -0.5602 1.3901 0.1777 -2.4205 4.0227 2.3391 -0.7159 -4.8373 2.8520 0.4542 -4.1487 1.0271 -1.0071 -4.7849 -0.9689 -1.7828 3.7504 2.0158 1.2469 -3.4546 0.1224 -0.1465 -4.0433 3.3729 0.0343 0.3804 -2.6253 -1.7841 0.4138 0.0228 3.1765 0.6933 1.9848 1.7636 1.6222 1.9742 0.5145 0.7432 -0.1690 -2.4838 1.6756 -1.2216 -1.7549 2.3957 -3.8213 -0.7207 -1.4723 0.5127 -1.5133 0.7309 -2.4784 -1.4550 1.8880 0.5992 0.9246 -3.3839 0.6383 2.4320 1.8626

>  <OB_ATOM_TYPES> (4estA1)
C.3 C.3 C.3 C.3 O.3 O.3 F F O.2 O.2 O.2 C.3 C.3 C.3 N.3 N.am N.am C.2 C.ar C.ar C.ar C.2 C.ar C.ar C.3 C.3 C.3 C.3 C.3 C.3 N.am C.2 C.2 C.2 C.ar C.3

>  <ENSEMBLE_RMSD> (4estA1)
2.004 2.094 2.109 2.112 2.167 2.170 2.170 2.185 2.205 2.261 2.266 2.285 2.320 2.325 2.354 2.382 2.386 2.390 2.417 2.433 2.444 2.469 2.519 2.552 2.552 2.564 2.586 2.623 2.650 2.706 2.735 2.759 2.842 2.857 2.903 2.930 3.009 3.039 3.054 3.073 3.081 3.115 3.144 3.272 3.277 3.299 3.342 3.503 3.719 4.123

$$$$
