
 OpenBabel03071213D

 46 51  0  0  0  0  0  0  0  0999 V2000
   14.6740   25.1820    4.4070 O   0  0  0  0  0
   19.0830   20.0530    5.4600 O   0  0  0  0  0
    8.7470   27.7300    4.7940 O   0  0  0  0  0
   14.1690   20.8740    6.2710 O   0  0  0  0  0
   10.7720   23.3470    5.6250 O   0  0  0  0  0
   14.0950   23.7330    6.2420 C   0  0  0  0  0
   13.0630   23.3670    3.9880 C   0  0  0  0  0
   18.1920   17.8580    4.9290 C   0  0  0  0  0
    7.4160   27.0590    6.7900 C   0  0  0  0  0
   15.2590   22.8430    8.2380 C   0  0  0  0  0
   11.0920   23.5370    2.5550 C   0  0  0  0  0
   16.3800   20.9810    5.7720 N   0  0  0  0  0
   10.3560   25.4970    5.0420 N   0  0  0  0  0
   18.3210   20.2390    9.7120 C   0  0  0  0  0
    7.1770   25.3410    1.9760 C   0  0  0  0  0
   18.6940   21.3890    9.0150 C   0  0  0  0  0
   16.9610   19.8950    9.9220 C   0  0  0  0  0
    7.3220   24.1070    2.6460 C   0  0  0  0  0
    8.3370   25.9830    1.5050 C   0  0  0  0  0
   16.6360   18.0180    1.4850 C   0  0  0  0  0
    9.8670   27.8630    9.5950 C   0  0  0  0  0
   15.7560   19.0840    1.7360 C   0  0  0  0  0
   10.9630   27.1200    9.1510 C   0  0  0  0  0
   17.6910   22.2530    8.5280 C   0  0  0  0  0
   15.9950   20.7730    9.4240 C   0  0  0  0  0
    8.5790   23.5260    2.8330 C   0  0  0  0  0
    9.5510   25.3390    1.6850 C   0  0  0  0  0
   17.5020   17.5510    2.4610 C   0  0  0  0  0
    8.6560   27.9530    8.9010 C   0  0  0  0  0
   15.6460   19.6780    2.9860 C   0  0  0  0  0
   10.8630   26.3550    7.9970 C   0  0  0  0  0
   14.2740   23.8800    4.7040 C   0  0  0  0  0
   18.0260   19.1690    5.7690 C   0  0  0  0  0
    8.1740   26.6170    5.5020 C   0  0  0  0  0
   15.2770   22.9090    6.7150 C   0  0  0  0  0
   11.9110   24.2230    3.6800 C   0  0  0  0  0
   16.6070   19.6130    5.3960 C   0  0  0  0  0
    9.3080   25.7010    6.0440 C   0  0  0  0  0
   15.2450   21.4600    6.2260 C   0  0  0  0  0
   10.9560   24.3500    4.8800 C   0  0  0  0  0
   16.3550   21.9480    8.7590 C   0  0  0  0  0
    9.7220   24.1410    2.3520 C   0  0  0  0  0
   17.3700   18.1740    3.7190 C   0  0  0  0  0
    8.5840   27.1890    7.7290 C   0  0  0  0  0
   16.4960   19.1910    3.9790 C   0  0  0  0  0
    9.6460   26.4250    7.3170 C   0  0  0  0  0
  1 32  1  0  0  0
  2 33  1  0  0  0
  3 34  1  0  0  0
  4 39  2  0  0  0
  5 40  2  0  0  0
  6 32  1  0  0  0
  6 35  1  0  0  0
  7 32  1  0  0  0
  7 36  1  0  0  0
  8 33  1  0  0  0
  8 43  1  0  0  0
  9 34  1  0  0  0
  9 44  1  0  0  0
 10 35  1  0  0  0
 10 41  1  0  0  0
 11 36  1  0  0  0
 11 42  1  0  0  0
 12 37  1  0  0  0
 12 39  1  0  0  0
 13 38  1  0  0  0
 13 40  1  0  0  0
 14 16  2  0  0  0
 14 17  1  0  0  0
 15 18  1  0  0  0
 15 19  2  0  0  0
 16 24  1  0  0  0
 17 25  2  0  0  0
 18 26  2  0  0  0
 19 27  1  0  0  0
 20 22  2  0  0  0
 20 28  1  0  0  0
 21 23  1  0  0  0
 21 29  2  0  0  0
 22 30  1  0  0  0
 23 31  2  0  0  0
 24 41  2  0  0  0
 25 41  1  0  0  0
 26 42  1  0  0  0
 27 42  2  0  0  0
 28 43  2  0  0  0
 29 44  1  0  0  0
 30 45  2  0  0  0
 31 46  1  0  0  0
 33 37  1  0  0  0
 34 38  1  0  0  0
 35 39  1  0  0  0
 36 40  1  0  0  0
 37 45  1  0  0  0
 38 46  1  0  0  0
 43 45  1  0  0  0
 44 46  2  0  0  0
M  END
>  <MOLID> (4phvB1)
4phvB1

>  <SMILES_CANONICAL> (4phvB1)
O[C@@H](C[C@H](C(=O)N[C@@H]1[C@H](O)Cc2c1cccc2)Cc1ccccc1)C[C@H](C(=O)N[C@@H]1[C@H](O)Cc2c1cccc2)Cc1ccccc1	

>  <FINGERPRINT> (4phvB1)
0000000000000101000000000000100000000001100000000101001000000000000000000001000000001001000000100001000000000001000001100000000000000000000110000000000011000000000000000000000000000000000000000000000000000000000000000000000000100010000000000001000000000000000000000000000000001000000000000000000000001000000010001100000000001000001100000000000000000000010000000000000110010000000000000000010000000000100010001000101000000000001000000001000000000000000000000000110000000100100000000000000000001110000000000000100000011000000000000000000000000000000000100000000000000000000000000000000001000000001000000000100000000000000000000000001000000001100000000000001000000001000000001001100000000100100001100001000000000011000000000100000000000000000000000101000000000000000110000000000000000000000010000000000011000000000000000000000000000000000000000000000001000000000000001001000000000000000000000000000000000000000000000000000100000010000000010000011000001000000010110010000000000110000000000000000000000000000000000010111000000000

>  <MACCS166> (4phvB1)
000000000000000000000000010000000000000000000000010001000000000000000000000100000000000001110011001000011000010000001000000010110011100100110111110001110111111010111000

>  <OB_MW> (4phvB1)
618.309

>  <OB_logP> (4phvB1)
5.1761

>  <OB_PSA> (4phvB1)
118.89

>  <OB_MR> (4phvB1)
177.746

>  <OB_ATOMIC_CHARGES> (4phvB1)
-0.2231232466 -0.2205753302 -0.2205753302 -0.2733333568 -0.2733333568 0.0423534078 0.0423534078 0.0610916932 0.0610916932 0.0355499539 0.0355499539 -0.2000537935 -0.2000537935 -2.00226e-05 -2.00226e-05 -0.0003223946 -0.0003223946 -0.0003223946 -0.0003223946 -0.0003399847 -0.0003399847 -0.000287928 -0.000287928 -0.0042543083 -0.0042543083 -0.0042543083 -0.0042543083 -0.0044417519 -0.0044417519 -0.0028503125 -0.0028503125 0.1529983868 0.1802074665 0.1802074665 0.0850654513 0.0850654513 0.1477266421 0.1477266421 0.2416262721 0.2416262721 -0.021702861 -0.021702861 -0.021843895 -0.021843895 -0.0039558149 -0.0039558149

>  <MCT_HBD> (4phvB1)
5

>  <MCT_HBA> (4phvB1)
7

>  <ENSEMBLE_TOTAL> (4phvB1)
50

>  <ENSEMBLE_COORDS> (4phvB1)
-0.9368 -1.7840 -0.9177 2.7155 -6.4256 -0.5840 -0.5579 2.9817 2.5737 1.9489 -3.9419 1.1984 -3.0096 1.4267 1.1764 1.2533 -0.9755 -0.5523 -0.5857 0.5794 -1.0465 4.1013 -6.2241 -2.5027 -2.6720 3.9028 3.2831 3.0635 -0.8124 1.1464 -2.5225 1.5014 -2.2706 3.0040 -3.2223 -0.7356 -1.7756 3.0665 0.0810 2.9303 -0.1604 5.3754 -6.7166 1.7976 -3.0593 2.3132 0.7147 4.5612 3.6364 -1.2999 4.8176 -6.0420 0.5126 -3.1205 -6.0356 2.8987 -2.6964 6.6770 -3.8929 -4.1243 -5.8650 5.4670 1.9668 6.5892 -2.8675 -3.2544 -5.4402 5.6501 0.5831 2.3447 0.5139 3.1237 3.6684 -1.4860 3.4862 -4.7329 0.4217 -2.8225 -4.6202 2.8029 -2.3923 5.8704 -5.0891 -3.9351 -5.0385 4.8981 2.8671 5.6625 -2.9237 -2.1317 -4.2133 5.2583 0.1841 -0.2188 -0.7056 -0.3359 3.1170 -5.5074 -1.5881 -1.4422 4.0668 2.3886 1.8731 -1.6139 0.6682 -2.0620 0.9081 -0.9537 3.8816 -4.3556 -0.9336 -1.9324 4.2243 0.9405 2.2744 -3.0475 0.4211 -2.3387 1.8159 0.2238 2.9790 -0.5546 2.6076 -3.9965 1.6113 -2.4280 5.0439 -5.1432 -2.8809 -3.7471 4.4437 2.4149 4.9131 -4.0261 -1.9634 -3.3590 4.5951 1.1405
0.8072 -0.2111 -3.2029 5.0512 -5.1407 1.2671 -1.5616 -0.6240 2.3147 1.8545 -2.8637 0.8364 -2.6445 0.2620 -0.3476 2.3242 -0.3380 -1.4025 0.4813 1.2961 -1.3848 3.6548 -6.2655 -0.3120 -3.7229 0.2468 2.9296 3.5042 0.1437 0.7380 -1.2251 3.0274 -1.7725 3.8916 -2.5748 -0.2436 -1.3042 1.7181 0.8623 1.9991 2.0359 4.2702 -4.8066 4.2659 -3.7476 2.0761 2.7467 3.1308 2.4325 0.6506 4.2929 -4.7432 4.1752 -2.3006 -3.7519 3.8900 -4.4927 1.8889 -5.7411 -3.6821 -5.8439 3.3627 2.7420 2.1971 -4.4425 -3.8678 -4.8177 4.2742 2.2483 2.5851 2.1265 1.9205 2.9120 0.0772 3.1753 -3.6249 3.7270 -1.7042 -2.5370 3.4242 -3.8465 2.3569 -6.4497 -2.4994 -5.5782 2.0493 2.8846 3.0091 -3.7294 -2.8926 -3.5876 3.8214 1.9338 0.8820 -0.1040 -1.7890 3.9182 -4.9622 0.4341 -2.2110 0.4870 2.9001 2.4333 -0.6846 0.0620 -1.0049 1.5490 -1.5227 4.2422 -3.9236 -0.6357 -1.9623 1.8032 2.1476 2.6757 -2.1575 0.2569 -1.7496 1.0999 -0.2848 2.9684 0.8371 1.9371 -2.4813 3.3258 -2.5062 3.1311 -5.7938 -1.6223 -4.2643 1.5698 2.5229 3.4640 -4.3934 -1.8172 -3.3180 2.4068 2.0697
-1.2991 -0.7903 2.7096 5.0657 -0.9002 -2.3614 -3.1835 2.9832 3.5581 3.3311 -0.0688 0.2292 -3.5552 1.4470 0.9285 0.6030 -1.5169 1.4648 -0.1537 0.8651 1.3750 4.4301 -2.7549 -3.7180 -4.9595 4.0979 2.3704 2.5870 -2.7929 2.2971 -0.7961 1.2225 -0.9923 2.8049 -2.2025 -0.5043 -1.9003 3.0740 1.0985 5.0981 -2.2717 5.7286 -3.1652 -0.2513 -4.2395 5.5954 -1.9917 4.5103 3.7271 -2.7304 5.8659 -2.2319 -1.1216 -3.5471 -3.3075 1.0289 -3.8521 1.4836 -5.1273 -4.3618 -5.7512 5.7356 -0.9514 0.6668 -4.6999 -3.3792 -4.3879 5.8202 -1.4629 4.7621 -2.1571 3.3329 2.9495 -2.8668 4.7767 -1.5088 -0.6504 -2.5153 -2.5217 1.5401 -2.7430 2.7860 -4.5079 -4.5599 -6.0050 5.1384 0.2307 1.0755 -3.6145 -2.4990 -3.3604 5.3014 -0.7615 -0.0370 -0.3801 2.2226 4.4312 -2.1680 -2.3126 -3.4866 4.1270 2.7865 2.0961 -1.4969 1.6906 -1.3033 0.8550 0.3880 2.9688 -1.9678 -1.9195 -2.6395 4.2476 1.5110 2.8070 -1.1658 0.4042 -2.3862 1.8115 0.8334 3.4822 -2.5538 3.4605 -1.6728 0.7284 -2.0867 3.1356 -3.4816 -3.7708 -4.8969 4.5861 0.9693 2.2678 -3.0289 -2.6997 -3.6452 4.6499 0.4952
-1.0883 -0.5186 2.6172 5.4941 -1.2208 -2.0448 -1.7654 3.7336 3.1606 3.6788 -0.1678 0.5008 -3.2127 1.5973 1.3149 0.7590 -1.5886 1.5513 0.0118 0.6711 0.8025 4.5248 -2.6865 -3.6534 -3.8764 4.7163 2.5587 2.7471 -2.8569 2.3999 -1.1533 0.8619 -1.3707 2.8801 -2.1296 -0.4411 -1.6106 3.0598 0.4803 4.7959 -2.3968 6.1326 -4.1121 -0.8148 -3.9672 5.4487 -2.1062 4.9929 3.4098 -2.8264 6.0854 -4.3074 0.4856 -3.3526 -3.0037 -1.5273 -3.6977 1.1717 -4.2505 -4.6748 -6.1052 5.2657 -0.4600 0.4169 -3.7713 -3.6668 -5.1048 5.0230 -1.4942 4.7737 -2.2460 3.7146 2.7786 -2.9405 4.9032 -3.3856 0.9740 -2.5040 -2.0025 -0.9930 -2.7905 2.5862 -3.9171 -4.7582 -5.7847 5.1577 0.8452 1.0055 -2.9219 -2.6408 -3.8386 4.7029 -1.1615 0.1459 -0.2763 1.9742 4.5779 -2.2953 -2.1819 -2.3685 4.6732 2.2948 2.2471 -1.5564 1.8128 -1.3438 0.6905 0.1245 3.1777 -1.8051 -1.8161 -2.1584 4.3596 0.8048 3.0082 -1.1952 0.5645 -2.1733 1.8199 0.6994 3.4848 -2.6313 3.6708 -2.1985 0.1948 -2.1903 3.1100 -3.1030 -3.8302 -4.4331 4.7896 1.1856 2.3060 -2.5979 -2.7320 -3.5136 4.5647 0.2374
-1.1335 -0.7332 2.6429 5.5292 -1.1465 -1.9917 -2.3435 3.3336 3.3022 3.6937 -0.1787 0.6166 -3.3734 1.5374 1.0239 0.7677 -1.6868 1.5593 -0.0179 0.5956 0.9447 4.5314 -2.5208 -3.6689 -4.1860 4.5158 2.2897 2.7683 -2.9467 2.3841 -1.0866 0.6826 -1.2880 2.9069 -2.0910 -0.4322 -1.5561 2.9439 0.6611 4.3719 -2.7050 6.3486 -4.1927 -0.8144 -3.8259 5.0726 -2.1727 5.3313 3.0865 -3.3311 6.0949 -3.2968 -1.7241 -3.1351 -4.0777 0.5129 -3.6423 1.1267 -3.9049 -4.7773 -5.4114 5.8246 -1.0492 0.3839 -3.4492 -3.7497 -4.1756 5.6441 -1.8018 4.5477 -2.2345 3.9785 2.5911 -3.3726 4.8450 -2.3503 -1.2409 -2.3105 -3.0446 1.0354 -2.7658 2.5547 -3.6277 -4.8349 -5.4929 5.4315 0.2378 0.9982 -2.6749 -2.6803 -3.0950 5.0886 -1.2185 0.1132 -0.4214 2.0558 4.5923 -2.1948 -2.1823 -2.6668 4.3978 2.4321 2.2513 -1.6331 1.8431 -1.3390 0.5891 0.2040 3.2061 -1.6914 -1.7876 -2.0698 4.2466 1.0255 3.0246 -1.2092 0.6217 -2.2115 1.7311 0.6766 3.3446 -2.7917 3.7457 -2.2235 0.1929 -2.1124 3.1038 -2.8824 -3.8652 -4.3352 4.8248 0.8453 2.3124 -2.4048 -2.7458 -3.1993 4.6564 0.1548
-0.5339 -0.2415 2.8368 4.9267 -0.9850 -3.1541 -2.0338 3.8077 3.3750 3.6271 0.1053 -0.3883 -3.0687 1.5636 1.4089 1.1082 -1.1862 1.3748 0.2869 1.1565 1.0457 4.1549 -2.9979 -4.1553 -4.2365 4.5155 2.7159 3.2287 -2.3611 2.0406 -0.7851 1.1631 -1.1759 3.0437 -2.0987 -0.7990 -1.6807 3.2733 0.6678 3.9465 -1.9298 6.2368 -3.5406 -0.7757 -3.8123 4.7255 -1.2520 5.3746 2.8705 -2.7678 5.7393 -2.4897 -1.5346 -3.1571 -3.6617 0.5441 -3.5849 1.2997 -5.5522 -3.9852 -6.4135 4.8741 -0.3688 0.6236 -5.0235 -2.9464 -5.3555 4.8013 -1.3708 4.4987 -1.3700 3.9449 2.6482 -2.8642 4.4166 -1.6391 -0.9204 -2.3142 -2.7439 1.2066 -2.6772 2.5088 -4.9116 -4.4810 -6.1244 4.7669 0.9438 1.1065 -3.8196 -2.2848 -4.0694 4.6436 -0.9991 0.5951 0.0657 2.0443 4.3609 -2.2487 -2.8457 -2.7283 4.6845 2.5123 2.6187 -1.1503 1.3727 -1.0251 0.9803 0.3090 2.9718 -2.0409 -2.2405 -2.4246 4.4634 1.0214 3.1431 -0.9636 -0.0249 -2.0482 1.9572 0.8499 3.4886 -2.1308 3.4847 -1.7948 0.4989 -2.0387 2.9224 -3.7810 -3.8909 -4.7491 4.5614 1.3243 2.2167 -3.2236 -2.7514 -3.7749 4.4976 0.4064
-1.3925 -0.6197 2.7922 4.3037 -0.9344 -2.8336 -2.8244 2.8375 3.6052 2.9192 0.0152 -0.1376 -3.4160 1.2888 0.8307 0.5331 -1.4517 1.6489 -0.1017 0.9805 1.5344 3.6913 -2.9710 -3.9173 -4.9132 3.7336 2.8114 2.7274 -2.4789 2.3091 -0.4145 1.4972 -0.8657 2.5062 -2.2294 -0.5430 -1.9901 3.1203 0.9753 5.7328 -1.2813 5.1187 -1.7373 -0.0045 -4.6471 5.9773 -1.1358 3.8042 4.4661 -1.8332 5.5642 -0.9429 -0.8313 -3.7581 -2.1130 1.2284 -4.2632 1.0251 -5.7317 -3.8462 -6.5436 4.9657 -0.3824 0.3250 -5.3021 -2.7782 -5.3271 5.1866 -1.1567 4.9759 -1.5366 2.8324 3.5306 -2.1884 4.6653 -0.5782 -0.3653 -2.5501 -1.7069 1.7373 -2.9646 2.1873 -4.9901 -4.3126 -6.4784 4.4720 0.8705 0.7186 -4.0898 -2.0755 -4.1180 4.9136 -0.6270 -0.0864 -0.2786 2.3713 3.8351 -2.2490 -2.5830 -3.4005 3.9378 2.9327 2.0376 -1.3119 1.6378 -1.0892 0.9661 0.3842 2.4338 -2.1668 -1.9827 -2.8377 4.1596 1.5200 2.5284 -1.0897 0.2314 -2.3001 1.7956 0.7506 3.7891 -2.0203 3.2448 -0.9848 0.9658 -2.1312 2.5185 -3.8531 -3.6834 -5.1805 4.1652 1.4171 1.7769 -3.3934 -2.5227 -4.0620 4.3714 0.7095
-1.6105 -0.7775 -2.2701 2.2155 -5.2838 1.6254 -5.5072 2.7213 1.6431 1.5204 -2.3567 1.6973 -2.4744 3.4163 0.5918 0.5349 -0.7499 -1.2954 -0.9287 1.2390 -1.1673 3.0447 -6.3787 -0.3172 -4.2101 3.3366 3.5746 2.4263 0.2799 -0.0475 -2.4857 2.9001 -2.1804 2.2989 -2.8085 -0.4400 -3.2837 1.2614 0.9402 2.2976 3.0944 3.1781 -2.5945 1.7133 -6.2947 3.0597 1.9925 3.2988 1.5283 3.3171 1.9669 -3.8156 1.8109 -5.5152 -1.4070 1.9776 -5.7216 4.9043 -5.6877 -3.5989 -0.9762 2.5419 5.3697 5.0034 -4.3482 -3.4920 -0.6262 1.3364 4.6274 3.1182 1.0293 2.2145 1.5853 2.4274 0.9599 -3.7618 2.1588 -4.2166 -1.3505 2.3730 -4.3258 4.2616 -6.4641 -2.5492 -2.0671 3.2588 5.0343 4.4541 -3.6561 -2.3342 -1.3881 0.9196 3.5964 -0.8921 -0.2753 -1.1525 2.3010 -5.1614 0.2143 -4.8003 2.1932 2.7465 1.2595 -0.6783 0.0261 -2.3458 1.7738 -1.1732 3.1516 -3.9361 -0.1262 -3.6478 1.2622 2.3424 1.7053 -2.0270 0.5278 -2.6908 2.2715 0.2095 2.4000 1.2307 1.0948 -2.4783 2.4358 -3.5940 3.8051 -5.8226 -1.4638 -2.8656 2.8106 3.9202 3.8771 -4.3763 -1.3573 -2.5446 1.7049 3.2330
-0.8924 -0.7706 -3.1692 4.8678 -3.6060 0.9844 -1.1478 -0.5477 1.8123 0.7618 -2.9252 0.9672 -3.1852 0.8494 -0.2437 1.0224 -0.9829 -1.7939 -0.2320 1.1460 -1.9188 4.6469 -5.9728 0.7622 -3.1734 0.0600 2.9641 2.7314 -0.2953 -0.1128 -1.3866 3.3337 -1.8418 2.5714 -3.1757 -0.4598 -1.3864 1.9686 0.7186 2.2973 2.6876 2.9270 -4.7582 5.4706 -3.3776 2.1427 3.0414 1.6384 2.6158 1.3131 3.2699 -4.4747 5.4421 -1.9542 -3.9780 4.7877 -4.2343 4.9884 -6.8582 -2.9590 -5.5497 2.9841 3.4052 4.0243 -6.0514 -3.4442 -4.6617 4.0372 2.9243 2.2876 2.0464 0.5910 2.7485 0.3903 2.3008 -3.4309 4.7322 -1.4901 -2.8404 4.0346 -3.7361 5.2583 -6.9073 -1.5292 -5.1414 1.6994 3.4265 3.2350 -5.2208 -2.5460 -3.4193 3.7427 2.4907 -0.3496 -0.3622 -1.9235 3.9145 -4.6585 1.0261 -1.7079 0.4078 2.6890 1.4403 -1.0488 -0.3442 -1.5571 1.8373 -1.6809 2.8700 -4.5358 -0.0888 -1.6576 1.8415 2.1372 1.5398 -2.4754 0.1292 -2.1427 1.4931 -0.3315 2.5565 0.7674 0.9101 -2.5884 3.9919 -2.4153 4.4947 -6.1750 -0.7051 -3.8133 1.3987 2.9552 3.4622 -5.2963 -1.2243 -3.0027 2.3611 2.4949
-0.8561 -0.9895 -2.6594 5.1281 -4.3241 1.0583 -1.6979 0.1429 2.9778 1.3170 -3.3809 1.3263 -3.2955 0.7480 0.3743 1.0985 -1.3269 -1.3891 -0.2616 0.7267 -1.1027 4.7906 -6.5805 0.3490 -3.7432 1.1899 3.7149 2.9204 -0.5859 0.1584 -1.4054 2.8356 -1.6882 2.9093 -3.4726 -0.3581 -1.6341 2.1928 1.1144 2.0242 3.0864 2.1683 -4.5357 4.6808 -3.9468 2.1231 1.9568 2.8916 2.2668 3.0559 0.7371 -3.5913 3.7807 -4.5828 -4.4805 4.8826 -2.6184 5.3293 -6.7089 -3.4504 -5.9034 4.2319 3.0498 4.4423 -5.7600 -3.8089 -4.9176 5.0189 2.3177 2.4470 0.7020 2.2370 2.5776 1.8964 0.1311 -2.6478 3.1633 -3.8487 -3.4497 4.2319 -1.8279 5.4966 -7.0698 -2.0502 -5.6064 2.9886 3.4785 3.6432 -5.0756 -2.8019 -3.6997 4.5101 2.0455 -0.3084 -0.7637 -1.3681 4.1182 -5.2994 0.8393 -2.2457 1.3587 3.4412 1.6716 -1.4273 0.0049 -1.6062 1.4211 -1.1761 3.1488 -4.8925 -0.2761 -2.0676 2.5237 2.4576 1.9302 -2.8583 0.3978 -2.2818 1.4136 0.1787 2.6373 0.6670 0.9055 -2.5792 3.3891 -2.4138 4.7214 -6.4704 -1.1346 -4.3003 2.4563 3.1790 3.7771 -5.4331 -1.5141 -3.4035 3.1677 2.4821
-2.2182 -3.2094 -0.5125 6.0977 -0.2105 -0.8454 -0.1365 1.1730 2.3862 2.1338 0.0875 0.1364 -2.9343 1.0497 1.1583 0.0414 -2.5021 -0.4525 -1.7241 -1.0558 -1.3822 6.1626 -2.6018 -0.6414 -1.1702 3.3328 2.6934 1.3394 -2.9413 1.6258 -3.2927 0.6898 -2.1543 2.9841 -1.9610 -0.5397 -1.0980 1.4681 -0.2027 0.6138 -1.7654 5.6769 -7.2272 2.3472 -1.8390 1.8113 -1.4997 5.1243 -0.4108 -2.4423 4.9018 -6.0460 3.1769 -1.6887 -7.0989 1.0248 -2.0487 5.8098 -4.0938 -4.1535 -2.6079 6.2683 0.7860 4.6821 -3.4554 -4.5229 -2.2100 5.8493 -0.5531 2.0775 -1.8883 3.7508 -0.1658 -2.8015 3.6291 -4.8222 2.6259 -1.7706 -5.7764 0.4305 -2.1521 6.3750 -3.8813 -2.8288 -2.3600 5.4802 1.8510 4.0092 -2.5540 -3.5989 -1.6009 4.6627 -0.7481 -1.3991 -2.0686 -0.3096 5.3369 -1.3347 -0.4282 -0.1466 2.5035 1.9145 0.8834 -1.8871 0.6402 -2.7933 -0.0762 -0.9452 4.0925 -1.4430 -1.3097 -0.4819 2.6205 0.4205 2.0516 -1.1355 0.0526 -2.2983 0.8741 0.1224 1.1215 -2.4976 3.0261 -4.6814 1.1966 -1.9955 5.6994 -3.1193 -1.9556 -1.7215 4.2068 1.6271 4.4675 -2.4544 -2.3402 -1.3682 3.8121 0.3952
-1.5004 -1.2745 2.6887 5.2996 -0.3688 -1.5629 -1.2885 4.2037 2.6159 3.3646 -0.1520 1.1071 -3.2308 2.0189 1.3269 0.5165 -1.9479 1.6099 -0.3004 0.3960 1.4051 4.5373 -1.5666 -3.4757 -3.1856 5.4095 1.7589 2.5326 -3.2674 2.2842 -1.2503 0.1949 -0.8845 2.7873 -1.9038 -0.2940 -1.3753 2.8637 0.2074 4.4308 -3.4702 6.1197 -4.5897 -1.2254 -3.1554 3.1985 -3.9887 5.9699 5.0948 -2.8378 4.9938 -3.8800 -2.1072 -2.2463 -4.2121 0.0594 -3.2791 1.3830 -3.1806 -4.9491 -5.3961 5.5915 -1.3148 0.5551 -2.9904 -3.9029 -4.4958 4.9237 -2.2479 2.5350 -3.9210 4.6796 4.4820 -2.7773 3.7981 -2.8449 -1.6409 -1.5251 -3.0914 0.5622 -2.5048 2.7603 -2.7133 -4.8950 -5.0479 5.7459 -0.0218 1.0330 -2.3350 -2.6940 -3.3045 4.4490 -1.8319 -0.2200 -0.8236 2.2948 4.5192 -1.4868 -1.9548 -1.7288 4.9977 1.5337 1.9803 -1.8928 1.9789 -1.5563 0.4957 0.5679 3.0661 -1.2440 -1.5480 -1.6434 4.2839 0.1770 2.7787 -1.2116 0.8978 -2.1591 1.8668 0.7474 3.1429 -3.3231 3.6387 -2.4465 -0.2487 -1.6464 3.1804 -2.0802 -3.7906 -3.7788 5.2200 0.4127 2.3036 -1.9010 -2.6488 -2.9547 4.5981 -0.4403
-1.7185 -0.7751 -2.1262 2.1663 -4.9165 2.1175 -5.3389 3.0176 1.6178 1.6130 -1.9802 1.8265 -2.3351 3.3499 0.6874 0.4843 -0.7555 -1.2847 -0.8912 1.2918 -1.2358 2.7855 -6.3167 0.2954 -4.0674 3.0838 3.6602 2.5130 0.3376 -0.3378 -2.3177 3.1168 -2.1441 2.2184 -2.7578 -0.2739 -3.3823 1.2714 0.7569 2.7380 3.5260 2.5134 -2.3119 2.3653 -6.3626 3.4754 2.4181 2.7088 1.8962 3.6403 1.3358 -3.5578 2.5307 -5.6356 -1.1385 2.4233 -5.7081 4.3895 -6.1960 -3.1858 -1.1883 1.4032 5.4413 4.5581 -4.8625 -3.2800 -1.0017 0.2907 4.5176 3.4209 1.3320 1.7472 1.8517 2.6382 0.4399 -3.5422 2.7323 -4.3054 -1.1207 2.6647 -4.2764 3.8047 -6.7809 -1.9886 -2.0916 2.3675 5.1757 4.1476 -3.9868 -2.1911 -1.7410 0.2011 3.3937 -0.9136 -0.2157 -1.0988 2.1490 -4.9948 0.7006 -4.8021 2.2079 2.6439 1.3135 -0.5342 -0.0432 -2.2783 1.8975 -1.2414 3.0330 -3.8835 0.1324 -3.8125 1.1517 2.1339 1.7326 -1.8223 0.6137 -2.6490 2.2838 0.1706 2.6281 1.4295 0.6647 -2.2753 2.7854 -3.5950 3.4790 -5.9710 -0.9706 -2.8579 2.2744 3.9567 3.6316 -4.5308 -1.0755 -2.6957 1.2478 3.1089
-2.1971 -2.9772 0.3853 4.7300 0.8950 -1.0202 -0.1414 1.6855 2.7870 1.9479 0.3303 0.3634 -2.8117 1.4496 1.3420 0.1352 -2.5571 0.4116 -1.4083 -1.0250 -0.7267 5.7574 -0.6940 -2.4649 -1.0039 3.9440 2.7263 1.9434 -2.6070 2.1376 -2.8708 0.5724 -1.8973 2.8480 -1.6392 -0.4557 -0.8764 1.6791 0.0825 0.3509 -2.7923 6.1056 -7.0147 0.3746 -2.9579 1.2128 -1.8068 5.7959 -0.0274 -3.7702 5.1013 -6.2228 -0.8373 -2.8483 -6.4606 1.5673 -2.6763 5.0467 -3.9621 -4.3472 -2.0911 6.6729 0.3381 3.7941 -4.1788 -3.9001 -1.7022 6.0171 -0.9058 1.7652 -1.7206 4.4556 0.4828 -3.6913 3.8598 -4.9290 -0.7675 -2.4852 -5.0638 1.6434 -2.2869 5.7870 -2.7838 -3.9204 -1.9499 6.0407 1.5204 3.1709 -3.2502 -2.9671 -1.1791 4.7747 -0.8931 -1.2407 -1.9320 0.4699 4.8609 -0.4991 -1.2484 -0.0164 2.9324 2.1385 1.1125 -1.7366 1.2211 -2.5007 0.0061 -0.5411 3.4941 -1.0755 -1.6196 -0.2550 2.8705 0.6231 1.9933 -0.8970 0.3320 -2.0954 1.1226 0.3993 1.3984 -2.6144 3.5192 -4.3305 0.5213 -2.1731 5.1908 -1.9156 -3.0907 -1.4289 4.6947 1.5166 3.8530 -2.1587 -2.5819 -1.0575 4.0949 0.3756
-0.7801 -0.9145 -2.6758 1.6726 -5.5275 1.9363 -5.1818 2.1547 0.3512 1.4344 -2.4339 1.9412 -1.7789 2.8256 0.5907 1.1261 -0.9820 -1.2821 -0.1586 1.1144 -1.5970 2.8413 -6.7105 0.2345 -4.5821 2.3352 2.6741 2.8561 -0.0283 0.2462 -1.3178 3.1985 -2.1523 2.5204 -3.0881 -0.0011 -2.8142 0.7943 0.1095 1.8736 3.9849 1.3710 -4.3768 5.0133 -4.5047 2.2287 3.7282 0.0993 1.8638 2.9153 2.3529 -4.3346 5.1955 -3.0653 -3.5128 4.1739 -5.1029 5.5580 -6.2387 -2.4309 -1.8585 1.2928 5.0971 5.7748 -4.9198 -2.2605 -1.2554 0.2437 4.2821 2.5952 2.3792 -0.2916 2.1955 1.6635 1.9900 -3.4169 4.5418 -2.3312 -2.5010 3.4919 -4.3146 4.5783 -6.9352 -1.6106 -2.8980 2.0121 4.6288 5.0150 -4.1665 -1.2722 -1.7363 -0.0325 3.0532 -0.2535 -0.3898 -1.4657 2.1198 -5.4192 0.5944 -4.8449 1.3953 1.4948 1.5961 -0.8629 0.1507 -1.5057 1.8071 -1.5830 3.1493 -4.2910 0.5041 -3.5945 0.5239 1.2992 1.8335 -2.2023 0.8021 -2.0284 1.8951 -0.1678 2.5484 1.3800 0.6082 -2.4609 3.6592 -2.9803 3.9194 -6.2422 -0.6706 -3.3877 1.7214 3.3047 4.1161 -4.8129 -0.5105 -2.8370 0.7573 2.5545
1.8183 1.5395 2.9579 3.9744 -1.7106 -3.2578 -4.2438 2.7288 3.5803 3.5849 -0.1351 -0.5574 -3.4894 0.8763 1.0314 1.3151 -0.5226 1.8686 -0.3460 1.3151 2.0429 2.7024 -3.6456 -3.7956 -6.0719 2.9928 2.0411 3.2274 -2.0667 2.3308 -0.5426 2.1206 -0.3386 2.5088 -2.1845 -0.4473 -2.6534 3.0210 1.3694 6.8707 -1.3305 4.4556 -0.6192 0.2674 -4.1970 5.7119 -1.3762 5.1373 6.8724 -1.4991 3.0135 -1.8081 0.8888 -3.6431 0.5263 0.2596 -3.4927 -0.4223 -5.5918 -2.7227 -6.7899 3.7136 -1.6065 -0.7572 -4.8511 -1.6479 -5.4623 4.1840 -1.9849 4.4639 -1.6097 4.4327 5.7178 -1.7187 2.3603 -1.7649 1.4573 -2.4254 0.5736 0.8730 -2.1765 0.7383 -5.2409 -3.5271 -7.0290 3.2722 -0.3555 0.0467 -3.6997 -1.2618 -4.4587 4.1984 -1.0847 1.1135 0.9766 1.8605 3.3067 -2.8162 -2.6703 -4.7839 3.5972 2.6041 2.7527 -0.8601 1.5559 -1.1428 1.2585 0.7560 2.1343 -2.3009 -1.8367 -3.8336 3.8549 1.4252 2.9861 -1.0018 0.0753 -2.5635 1.6818 1.0511 4.4639 -1.7626 3.0962 -0.5348 1.4251 -1.6516 1.4498 -4.1574 -3.1856 -5.9378 3.2581 0.5868 1.1135 -3.3743 -2.0104 -4.7183 3.6955 0.2442
-0.9710 -1.0808 -2.9270 1.3248 -6.3699 -0.0049 -1.3226 -0.3164 2.3111 0.9937 -3.2375 1.2373 -3.1903 0.6616 0.0898 0.9657 -1.2470 -1.5830 -0.3264 0.8561 -1.7081 3.3945 -6.9550 -1.0392 -3.1763 0.5878 3.5464 2.6877 -0.5446 0.0885 -1.5075 3.0149 -1.8493 2.5268 -3.4508 -0.4901 -1.4477 2.0066 0.8349 1.9257 3.3286 1.7515 -4.7997 4.9409 -3.7778 2.1820 3.2180 0.4358 1.9223 2.1446 2.5926 -4.6449 4.9897 -2.3353 -3.9277 4.2420 -4.5262 6.9382 -5.6050 -1.6352 -5.4501 3.6176 3.5925 6.7731 -4.3762 -1.1072 -4.6025 4.5172 2.8181 2.4531 1.9140 -0.1416 2.1574 0.9341 2.0551 -3.6278 4.3368 -1.7455 -2.8185 3.5513 -3.8918 5.8367 -6.5567 -1.6461 -5.0704 2.3438 3.8165 5.4902 -3.9804 -0.5428 -3.4256 4.0896 2.3184 -0.4214 -0.6527 -1.6895 2.3595 -5.8568 -0.8285 -1.7426 0.8089 3.0562 1.4164 -1.3344 -0.1419 -1.6610 1.5440 -1.5200 3.0664 -4.7278 -0.0814 -1.7138 2.1185 2.2530 1.6127 -2.7667 0.2858 -2.1955 1.3512 -0.1189 2.4104 0.8117 0.6288 -2.6860 3.5794 -2.5534 4.6700 -6.1954 -1.0926 -3.8177 1.8949 3.2618 4.4799 -4.8661 -0.5403 -3.0402 2.7164 2.5436
-2.4214 -3.0758 -0.1691 5.0593 0.1503 0.6781 0.5633 2.5027 1.3246 1.8078 -0.3172 1.0456 -2.3967 1.7399 1.2202 -0.0672 -2.8659 -0.0400 -1.4710 -0.9746 -0.7489 6.1612 -0.8045 -1.2029 -0.6912 4.5550 1.3747 1.5920 -3.7718 1.5706 -3.5081 0.1778 -1.5518 2.8137 -1.9398 -0.2682 -1.1695 1.8662 -0.7498 2.1637 -3.7520 5.8113 -7.5005 1.3891 -0.5968 1.0179 -4.2492 5.3115 3.1848 -3.2381 4.9162 -7.0462 0.0410 -0.3078 -6.6529 2.2860 -1.1294 5.4573 -2.6398 -4.4980 -3.3033 6.5105 -0.5430 4.1208 -2.7606 -4.3750 -3.2881 5.7174 -1.7670 0.7999 -4.2673 3.8759 2.9854 -3.2561 3.5865 -5.7832 -0.3207 -0.5949 -5.2901 1.8952 -1.4431 6.2327 -1.9596 -3.4708 -2.5343 6.1629 0.5080 3.4382 -2.2559 -3.1916 -2.5097 4.6213 -1.8651 -1.3888 -2.1649 0.1766 5.0656 -0.9935 -0.1613 0.1649 3.6041 0.5365 0.8930 -2.5247 1.0741 -2.5935 -0.0360 -0.3630 3.7455 -1.0565 -0.9300 -0.6432 3.2141 -0.7106 1.8717 -1.4685 0.6218 -2.0493 1.2811 0.1355 1.7364 -3.7698 3.0481 -4.8674 0.6466 -1.1759 5.5903 -1.4678 -2.4018 -1.7271 4.9737 0.3992 4.1585 -1.6392 -2.2401 -1.7212 4.2352 -0.7193
2.7310 2.9596 0.6454 3.1722 -4.0668 -2.4488 -4.1156 -0.2687 -1.0104 3.4434 -0.9452 -1.6630 -1.0377 -0.0667 -1.3738 1.8095 0.7646 0.7435 0.4941 2.6857 -0.0778 1.2614 -5.3320 -1.7857 -5.1972 0.1431 1.0970 3.5312 -0.7254 1.7863 -1.0605 3.3300 -1.9166 2.0071 -2.0888 -0.2449 -2.1968 1.3862 0.0094 6.1369 1.7273 4.1334 -2.1069 2.6149 -6.0108 4.8187 1.7273 4.4013 6.6562 0.9266 3.0389 -0.7329 2.8965 -5.6354 -3.0654 2.5681 -5.0687 -2.1033 -5.0023 0.0298 -4.6062 1.6520 4.5085 -2.0130 -3.7034 0.3763 -3.1658 1.8481 4.3962 3.9194 0.9076 3.6105 5.8221 0.1763 2.2969 -0.4156 3.1109 -4.3456 -2.7237 2.7989 -3.6763 -1.0319 -5.6412 -0.7201 -5.3148 1.1852 3.4617 -0.8487 -2.9176 -0.0040 -2.5194 1.5476 3.2516 1.8691 2.0597 -0.0374 2.2449 -4.2370 -1.3900 -3.9463 -0.3769 0.3892 3.0583 -0.0548 0.5154 -0.2961 2.1955 -1.2684 1.4189 -2.9609 -1.2349 -2.7261 0.3986 0.9219 2.8589 -1.0594 -0.5882 -1.1975 1.0489 -0.8828 4.3990 0.1698 2.5928 -1.4476 3.0406 -3.3242 0.0120 -4.8954 -1.1102 -4.6166 0.8996 2.2321 0.1112 -3.4922 -0.7476 -3.2899 1.0654 2.1271
2.4382 1.8161 2.4746 3.9012 -2.6200 -3.4470 -3.6232 2.1046 3.5617 3.9559 -0.3502 -1.0017 -2.9362 0.5930 0.9412 1.8711 -0.3591 1.6993 0.2340 1.4979 1.6999 1.9572 -3.9613 -3.7275 -5.5971 2.3502 2.2025 3.7647 -1.9613 2.0179 -0.2599 1.9833 -0.7169 2.4958 -2.1102 -0.6218 -2.2708 2.8022 1.2373 6.0262 -0.8855 5.4901 -0.8575 0.0025 -4.4695 6.6113 -0.8044 4.2816 4.6424 -1.3116 5.6000 0.4783 0.3206 -3.9973 -1.9288 0.3186 -3.7208 -1.6612 -4.2926 -2.4998 -6.6789 3.3436 -1.2924 -1.6291 -3.3550 -1.5325 -5.4358 3.9792 -1.7159 5.8630 -1.1560 3.0881 3.9444 -1.6264 4.4944 0.6478 0.9256 -2.8072 -1.7469 0.9937 -2.4495 -0.4826 -4.5561 -3.3116 -6.7787 2.7773 -0.0729 -0.4083 -2.6074 -1.2660 -4.3733 4.0251 -0.8873 1.6794 1.1251 1.4916 2.8845 -3.2925 -2.7209 -4.3201 3.0088 2.7295 3.2482 -0.7745 1.2378 -0.6523 1.1816 0.5122 2.0413 -2.2556 -1.9825 -3.5078 3.4944 1.5189 3.2771 -1.0388 -0.2433 -2.0841 1.4762 0.9062 4.5759 -1.5354 3.1877 -0.5089 1.2510 -1.9883 0.6286 -3.8449 -3.0757 -5.6213 2.7963 0.7866 0.6782 -2.8562 -2.0153 -4.4817 3.3882 0.4043
1.4182 1.2147 3.3177 4.1813 -2.1905 -2.9333 -5.1122 0.7818 2.6146 3.6962 -0.2176 -0.3018 -3.4150 0.4016 0.1853 1.3390 -0.8425 2.1303 -0.5491 0.7637 2.0928 2.4032 -3.6155 -3.6466 -6.2860 1.8841 0.8220 3.4095 -2.2093 2.4388 -0.5071 2.0025 -0.1149 2.3373 -2.0954 -0.3323 -2.9446 2.1826 1.6066 7.0600 -1.2831 4.4827 0.1494 0.8717 -4.1951 7.0815 -1.4362 3.1464 5.8133 -1.4401 5.2107 -1.1914 1.1352 -3.7061 1.2028 0.9873 -3.3672 -1.3157 -4.3202 -2.9991 -6.0320 4.7668 -1.6052 -1.4981 -3.4809 -1.9606 -4.7992 5.3515 -1.0911 5.8575 -1.7547 2.4336 4.6762 -1.7227 4.5497 -1.3813 1.4897 -2.4228 0.9970 1.3569 -1.9781 -0.0139 -4.4272 -3.6420 -6.5031 3.6095 -1.1001 -0.3950 -2.6717 -1.4618 -4.1114 4.7431 -0.1045 0.9523 0.6186 2.1151 3.1190 -2.9983 -2.4519 -5.4353 2.0488 2.0823 2.7971 -1.0006 1.7662 -1.1323 0.8877 0.7002 2.0998 -2.1017 -1.7549 -4.2050 2.8853 1.7092 2.9953 -1.0466 0.2740 -2.6226 1.1186 0.7900 4.6955 -1.8688 3.1034 -0.2464 1.5791 -1.5168 0.9870 -3.6538 -3.1972 -5.7582 2.9682 -0.0448 0.8024 -2.7672 -2.0631 -4.6158 3.4953 0.4195
-0.1428 -0.3872 -3.1053 1.1384 -5.2374 2.1377 -5.1338 1.9144 0.1867 1.0332 -2.1611 1.8379 -1.8128 2.7870 0.5686 1.4497 -0.6405 -1.3801 0.0931 1.4430 -1.6022 2.2088 -6.6153 0.5193 -4.5218 1.8566 2.5157 3.0040 -0.0086 0.4684 -1.2358 3.4494 -2.1373 2.1713 -3.0123 0.0148 -2.6781 0.7597 -0.1926 2.5769 4.1766 1.2685 -4.6270 5.1242 -4.1385 2.1174 3.2937 2.1737 3.2243 3.7067 0.0567 -3.8595 4.0562 -4.7536 -4.3176 5.5500 -2.9007 5.1178 -6.5502 -1.9810 -1.6761 0.7426 4.7642 5.4252 -5.2414 -1.8929 -1.0389 -0.1844 3.8355 2.2638 1.8690 1.9349 3.3575 2.3872 -0.1667 -2.8297 3.4984 -4.0912 -3.1987 4.9551 -2.1911 4.0313 -7.1068 -1.1882 -2.7836 1.4213 4.4039 4.6645 -4.3609 -1.0176 -1.5501 -0.3791 2.6036 0.0989 -0.0652 -1.7432 1.5900 -5.2509 0.7918 -4.7456 1.0488 1.2345 1.6759 -0.6414 0.1142 -1.3126 2.0112 -1.6631 2.6993 -4.2094 0.6367 -3.4531 0.2747 0.9327 1.5853 -2.0058 0.7506 -1.9462 1.9266 -0.2945 2.8421 1.4317 0.8008 -2.4909 3.9580 -2.7538 3.3572 -6.2932 -0.3630 -3.3099 1.2128 3.0787 3.6579 -4.8764 -0.2926 -2.7192 0.3723 2.2191
-2.3723 -2.8678 1.9070 4.0156 1.0014 -0.9036 -2.2734 3.4881 3.3383 1.9739 0.0967 1.4344 -3.6111 1.6739 1.0929 -0.0474 -2.6611 1.3900 -1.4099 -0.6614 2.1088 3.8832 0.0291 -3.0770 -3.1540 5.0237 1.7047 2.2778 -3.2430 2.1103 -1.2489 -0.3973 -0.3794 2.1465 -1.4950 -0.2425 -1.3284 2.0970 1.1220 4.1750 -3.1431 5.9471 -3.2965 -0.9597 -4.0937 4.5303 -2.2336 5.0220 3.1493 -4.1257 5.6437 -3.2934 -2.0076 -3.0880 -2.6682 0.2049 -3.8543 1.6865 -2.2800 -5.2185 -3.1952 5.6768 -2.0284 0.8088 -2.6548 -4.2668 -2.1066 4.7791 -2.3997 3.8967 -2.2441 3.7161 2.5497 -4.1255 4.4398 -2.6720 -1.8117 -1.9107 -1.9936 0.4147 -2.5866 2.7653 -1.3550 -4.9026 -3.5979 5.7715 -0.7455 0.9281 -2.1409 -2.9099 -1.4770 4.0398 -1.4651 -1.1957 -2.1551 2.2326 3.7327 -0.2128 -1.5805 -1.9141 4.3081 2.2472 1.2693 -2.1354 1.9122 -2.1064 -0.1751 0.8510 2.2678 -0.5808 -1.3526 -1.2599 3.5442 1.0861 1.8202 -1.0504 1.0217 -2.4455 1.2929 1.0226 2.9314 -3.1411 3.4409 -2.0233 -0.5390 -1.6382 2.8472 -0.8637 -3.6579 -2.9348 4.9532 0.2389 1.9044 -1.2624 -2.6292 -1.9343 4.1282 -0.0995
-1.0965 -1.1052 -2.6391 1.2103 -6.1037 1.0457 -2.1221 -0.8105 2.0389 1.1658 -2.8429 1.5405 -3.4197 0.8402 -0.2330 0.9791 -1.2451 -1.5159 -0.2624 0.8958 -1.6473 2.9740 -7.0816 -0.2267 -4.0092 0.3598 2.9740 2.9636 -0.5435 -0.1698 -1.3134 3.1332 -1.6372 2.4279 -3.4710 -0.3003 -1.5562 1.6492 0.9006 2.7484 3.5582 1.0398 -4.4180 5.4219 -3.4901 2.7644 2.6025 1.9864 2.8271 3.1944 -0.3637 -3.4402 4.7096 -4.2930 -4.3762 5.3397 -2.1485 6.3689 -6.2351 -1.8049 -5.4524 3.8339 3.3986 6.3884 -4.9147 -1.5366 -4.2795 4.5919 2.9784 2.8450 1.2041 1.6028 2.9092 1.9000 -0.7191 -2.4903 3.9667 -3.6967 -3.3440 4.5478 -1.5039 5.2430 -7.0564 -1.3841 -5.4454 2.4865 3.3661 5.2791 -4.2877 -0.8309 -3.1696 3.9558 2.5532 -0.3917 -0.6058 -1.5130 2.0665 -5.8693 -0.0607 -2.4856 0.2939 2.8400 1.6034 -1.2065 -0.1398 -1.5705 1.6456 -1.5076 2.9765 -4.6849 0.2607 -1.9983 1.6396 2.2801 1.7030 -2.5818 0.4667 -2.2949 1.3334 -0.2196 2.8907 0.8644 0.3014 -2.4502 3.8701 -2.2470 4.2429 -6.4761 -0.7054 -4.2576 1.8204 2.8943 4.2462 -5.0500 -0.4342 -3.1797 2.5131 2.4998
1.9874 1.0075 -3.1843 4.6896 -4.7474 0.4579 -1.2918 -1.8237 0.3262 4.8474 -1.7596 0.1620 -2.1528 0.4432 -1.3422 3.1788 0.5746 -1.1933 1.1052 1.8926 -1.1611 2.7990 -6.0477 -0.1804 -3.4226 -1.4154 1.3611 3.9037 0.6684 1.1764 -0.7762 3.4418 -1.2263 2.6611 -2.4009 -0.2913 -0.8959 0.9198 0.5523 1.5363 3.1181 3.7685 -4.2722 4.9718 -3.1496 2.1907 3.6912 2.7424 1.6247 1.6837 3.9759 -3.0361 4.8030 -3.8925 -4.3392 4.6012 -1.8586 -0.4716 -5.8432 -2.1691 -5.4574 1.3037 2.9938 -0.3863 -4.5566 -2.5600 -4.4087 2.3109 3.0922 2.9897 2.8748 1.8461 2.3603 0.9260 3.1432 -1.9531 4.2793 -3.2899 -3.1680 4.0479 -1.2046 0.5877 -6.4417 -1.3713 -5.2321 0.1449 2.3438 0.7612 -3.7429 -2.1824 -3.1953 2.0904 2.5491 1.8032 0.7198 -1.8062 3.2838 -4.6822 0.2833 -1.9058 -1.2405 1.4567 3.0946 -0.1071 0.1550 -0.3586 2.0160 -1.5273 2.9675 -3.7011 -0.8448 -1.6186 0.2581 1.6131 3.6585 -1.4944 0.0138 -1.2387 1.0375 -0.7758 3.0547 1.5428 2.0248 -2.0276 3.8739 -1.8964 1.6652 -5.7009 -1.0744 -3.9319 -0.0766 1.7558 1.7508 -4.3046 -1.4674 -2.9606 0.8435 1.8561
2.5002 2.9809 0.8190 2.5991 -3.7925 -2.9119 -4.6663 0.8407 -1.3073 2.9029 -0.8390 -1.8379 -1.2028 0.1951 -1.6602 1.6179 0.7683 0.7540 0.2642 2.7350 0.0928 1.4587 -5.4639 -1.6605 -5.5040 0.6053 0.9385 3.5253 -0.5988 1.6223 -1.2699 3.6405 -1.6422 1.9833 -2.1720 -0.1798 -2.3293 1.3866 -0.0186 6.5249 1.9950 3.2363 -2.1835 3.5298 -5.8312 5.3110 1.9589 3.8134 6.7992 1.1725 2.0728 -0.8264 3.7794 -5.3763 -3.1711 3.3613 -4.9351 -1.0904 -5.8790 1.1771 -4.3202 0.5301 4.5386 -1.2377 -4.5797 1.5023 -2.8924 0.3768 4.2760 4.2805 1.0850 3.2827 5.8459 0.3638 1.5773 -0.5543 3.8385 -4.0590 -2.8793 3.4162 -3.5134 -0.2020 -6.2691 0.0917 -5.1975 0.6383 3.5199 -0.4858 -3.5509 0.7963 -2.4286 0.3222 3.0112 1.6443 2.1225 0.0774 2.2325 -4.1537 -1.5890 -4.4954 0.1177 -0.1047 2.8667 -0.0032 0.3976 -0.4795 2.4264 -1.1888 1.2712 -3.0998 -1.0341 -3.0795 0.2592 0.4845 2.5849 -1.0314 -0.6668 -1.3628 1.2153 -0.9928 4.5336 0.3264 2.2010 -1.6172 3.6151 -3.0902 0.4540 -5.3110 -0.5791 -4.6836 0.6035 2.1725 0.3337 -3.9146 -0.2046 -3.3744 0.4521 1.9283
-3.2160 -2.6347 1.9874 1.6736 -3.4134 -3.2949 -0.3275 1.4831 2.7048 0.7623 -4.2731 -0.3380 -2.9723 1.2785 1.2448 -0.9628 -3.2891 1.7074 -2.0791 -1.8420 0.0529 3.2592 -1.6662 -3.6438 -0.8100 3.7631 2.1003 1.3397 -3.4423 2.6025 -2.8782 -0.3997 -1.7592 1.7090 -2.1531 -0.3695 -0.9958 0.9248 0.0765 3.2400 -0.4206 4.9628 -6.1416 1.8303 -3.3873 3.8708 -0.8870 3.8701 1.9484 -0.9638 5.3436 -6.3623 0.5179 -2.8070 -4.9112 2.3733 -3.3790 5.7125 0.5974 -1.7495 -1.4904 5.9903 -0.8743 5.4249 0.1944 -0.4961 -1.2030 5.0181 -1.9218 3.2531 -1.9249 3.0646 1.3742 -1.9237 4.5974 -5.3348 -0.1621 -2.2666 -3.8015 1.6381 -2.8019 5.0268 0.0054 -2.8888 -1.4678 5.6221 0.4222 4.4180 -0.8313 -0.2615 -0.8949 3.7438 -1.6092 -1.9582 -2.1649 1.5249 2.1189 -2.1734 -2.7706 0.0093 2.5080 1.7932 0.4616 -2.8020 1.5485 -2.8531 -0.5789 -0.2546 2.7089 -2.4061 -1.3810 -0.2403 2.1335 0.3262 0.9843 -3.1881 0.1899 -2.2949 0.6451 0.4394 2.0430 -2.4065 3.4010 -4.0072 0.4288 -2.2499 4.1285 -0.9643 -2.6648 -1.1663 4.2473 0.7430 3.7952 -1.3849 -1.3153 -0.8934 3.3527 -0.2187
2.1915 3.6078 0.6144 2.5481 -3.4611 -2.1556 -3.8720 -0.4820 -1.3962 2.8918 -0.6220 -1.3542 -0.6468 0.3674 -2.0110 1.2952 1.4070 0.8051 0.0238 3.2298 -0.2599 1.0981 -4.9903 -1.0750 -4.4607 -0.9656 0.8852 2.9529 0.0725 2.0620 -1.6955 3.6249 -2.0136 1.5021 -1.5811 0.2322 -2.0479 1.2036 -0.3561 7.0384 1.0628 2.8553 -2.7543 3.4283 -6.1527 6.0660 1.7487 3.4832 6.6948 -0.0113 1.9407 -3.4839 2.6668 -5.1553 -1.6641 4.1309 -5.7974 -1.8104 -5.1806 1.3978 -3.3674 -0.3009 4.4050 -1.8893 -3.8730 1.7102 -2.0718 0.2967 4.1097 4.6717 1.4255 3.2360 5.4053 -0.3226 1.7236 -3.0995 2.7006 -3.8673 -1.2612 4.1869 -4.4026 -0.8401 -5.6435 0.4195 -4.2361 -0.5700 3.4115 -0.9999 -2.9108 1.0797 -1.7152 0.5684 2.8385 1.4011 2.6427 -0.0587 1.9190 -3.7184 -0.9094 -3.3477 -0.9275 -0.1610 2.5355 0.5572 0.6908 -0.5880 2.7094 -1.5411 0.9197 -2.5979 -0.6131 -2.2218 -0.0261 0.3687 2.3280 -0.5940 -0.2625 -1.0875 1.3008 -1.3452 4.3549 0.4450 2.3714 -1.9502 3.4999 -3.4735 -0.0826 -4.7366 -0.2141 -3.8397 -0.2880 2.0513 -0.1653 -3.3234 0.1123 -2.6391 0.2430 1.7714
-2.0064 -2.2741 2.4329 4.7867 0.7493 -0.4573 -2.1182 3.9324 2.7438 2.8092 -0.1918 1.9322 -3.5005 1.9107 1.0219 0.2033 -2.3997 1.5397 -0.9006 -0.1886 1.8943 4.2443 0.2956 -2.7358 -3.1031 5.2364 0.9683 2.3672 -3.5644 1.9996 -1.5631 -0.3737 -0.5117 2.4757 -1.3961 -0.0201 -1.2421 2.3277 0.6417 4.0722 -4.7469 5.7479 -4.7048 -1.6184 -3.1388 4.7957 -3.9756 4.9164 2.7283 -5.1526 5.3761 -4.3896 -0.2118 -2.9680 -4.0286 -2.5493 -2.4424 1.4075 -1.0523 -4.9431 -3.0230 5.7443 -2.7752 0.5503 -1.4096 -3.9668 -1.9133 4.8479 -3.0759 4.2340 -3.5540 3.6449 2.2042 -4.7556 4.2026 -3.4170 0.1607 -2.1173 -2.9777 -2.1480 -1.5235 2.6918 -0.4516 -4.6125 -3.5068 5.8375 -1.5204 0.8972 -1.2007 -2.5689 -1.3497 4.1048 -2.1027 -0.7597 -1.6091 2.3928 4.1764 -0.2135 -1.3016 -1.8255 4.6328 1.5536 1.6137 -2.2545 2.0663 -1.9959 0.0572 0.8749 2.6946 -0.3104 -0.9477 -1.1812 3.7603 0.4680 2.3570 -1.1658 1.3344 -2.3452 1.5280 0.8613 2.9808 -3.9119 3.3085 -2.6974 -0.8438 -1.3498 2.9816 -0.2212 -3.3237 -2.9050 5.0272 -0.4895 2.0655 -0.6110 -2.2666 -1.8826 4.2035 -0.7631
-2.2183 -2.6979 0.8580 5.0918 0.5178 1.4044 -3.7891 4.1755 0.4984 1.9821 -0.2118 1.9699 -3.3156 1.1282 1.5108 0.0266 -2.3563 0.1856 -1.7705 -0.9235 -0.6919 6.0776 0.0722 -0.7196 -1.9222 5.4751 -0.2812 1.6675 -3.6052 1.5944 -3.7497 0.0936 -1.7881 2.8325 -1.3660 0.1452 -2.2263 2.0747 -0.3003 1.4972 -5.0305 5.6260 -8.0308 0.1951 -1.7528 2.3439 -4.0291 5.3265 0.6253 -5.5744 4.6004 -7.2503 1.4162 -1.6673 -7.4108 -0.9966 -1.8149 5.1846 -1.0217 -4.2883 1.6248 5.1019 -1.5613 3.8671 -1.2356 -4.1048 1.8259 3.7056 -1.1886 2.4098 -3.5170 3.9694 0.6691 -5.0858 3.3481 -5.9066 1.3571 -1.6529 -5.9587 -1.0612 -1.8148 6.0169 -0.5622 -3.1861 0.4422 5.7078 -1.3330 3.2570 -1.0191 -2.8002 0.8419 3.0072 -0.5870 -1.2843 -1.6827 0.5244 5.0614 -0.3915 0.3164 -2.4025 4.3841 0.6773 0.9676 -2.2845 1.3630 -3.0770 -0.1957 -0.4619 3.6910 -0.3173 -0.3568 -1.5552 3.1190 0.4391 1.9632 -1.1661 1.1968 -2.8825 1.0556 0.3623 1.5958 -4.0156 3.0205 -5.2347 0.0683 -1.7107 5.4390 -0.3297 -1.9987 -0.6131 4.9380 -0.7219 4.0236 -0.5760 -1.7896 -0.4272 3.6599 -0.3643
-1.2381 -0.7384 -2.5097 0.5412 -5.2142 1.6535 -1.6573 -0.7187 2.1423 1.2902 -1.9719 1.7680 -3.6876 0.7851 0.3398 0.8926 -0.7527 -1.4949 -0.6180 1.1903 -1.2419 1.8138 -6.6515 0.2380 -3.4935 -0.1181 3.5784 3.0682 -0.1965 -0.4132 -2.1125 3.1941 -1.3861 2.0006 -3.0301 -0.1686 -1.8737 1.9127 1.2628 3.5799 3.9990 0.2706 -1.7004 4.3696 -5.4791 3.6424 3.1566 1.3176 3.3416 3.4819 -1.0650 -2.9872 3.9525 -4.9523 -0.6153 4.3724 -4.6845 4.9285 -6.6806 -2.0041 -5.6404 2.8463 4.5547 5.2591 -5.3785 -1.8996 -4.7876 3.8989 4.0140 3.4696 1.7295 1.1119 3.1777 2.1610 -1.2564 -3.0967 3.5624 -3.6695 -0.7352 3.9646 -3.2965 3.7706 -7.2061 -1.2956 -5.3019 1.5494 4.4126 4.4609 -4.4766 -1.0810 -3.6440 3.5920 3.3694 -0.5461 -0.3173 -1.3437 1.2136 -5.2616 0.4054 -2.0622 0.1978 3.1373 1.6419 -0.6466 -0.1861 -2.0394 1.7024 -1.1268 2.3862 -4.2832 0.4372 -2.0198 1.6652 2.6816 1.6246 -1.9395 0.5862 -2.6333 1.4054 0.2293 3.2289 1.2519 -0.1227 -1.9220 3.5531 -2.8147 3.0660 -6.3768 -0.5122 -4.0878 1.2350 3.7028 3.4057 -4.9691 -0.4106 -3.3040 2.1990 3.2015
-3.5486 -2.2608 1.2753 1.7697 -2.7649 -3.6015 -0.3714 1.3341 2.9164 0.4990 -3.9814 -0.8681 -2.8960 1.7384 1.1926 -1.3477 -3.1054 1.1176 -2.1139 -1.2782 -0.3532 3.5328 -1.1635 -3.5139 -0.5856 3.7229 2.6558 0.8154 -3.6376 2.1962 -2.7345 0.4897 -1.9598 1.6042 -1.9719 -0.5132 -0.8516 1.2960 0.1800 2.7552 -1.2348 5.1595 -6.3770 0.0981 -4.1764 3.4457 -1.6029 4.0653 1.3844 -1.6792 5.3367 -5.6636 -1.0782 -3.7131 -5.9170 1.3259 -3.8771 5.9782 0.4948 -1.0644 -0.7449 6.4497 0.0349 5.5246 -0.0641 0.0749 -0.4470 5.6248 -1.1302 2.8143 -2.4319 3.0543 0.7972 -2.4443 4.3997 -4.5327 -0.9416 -2.9978 -4.6971 1.4730 -3.1029 5.3632 0.1662 -2.3419 -0.8673 5.8896 1.2549 4.4003 -0.9890 0.0489 -0.2727 4.2941 -1.0022 -2.2059 -1.8631 1.0385 2.2638 -1.6729 -2.8425 0.1420 2.4497 2.2190 0.1252 -2.7586 1.1748 -2.8022 0.0610 -0.5077 2.6771 -2.1735 -1.4601 0.0126 2.3372 0.6936 0.7521 -3.0031 -0.1724 -2.2051 1.1306 0.3791 1.5332 -2.8147 3.2026 -4.0421 0.3853 -2.6591 4.3492 -0.7112 -2.3587 -0.7193 4.4590 1.3724 3.8361 -1.2933 -1.1314 -0.4325 3.6999 0.3049
-2.2848 -3.3938 1.1804 2.8093 1.7463 0.9899 -0.4770 1.9788 2.4712 1.3761 -0.5265 2.4305 -2.7873 0.9745 1.1152 0.0802 -3.3950 1.0757 -1.2149 -1.8224 -0.2572 3.3756 1.7056 -1.3245 -1.2753 4.0648 1.5652 2.3819 -3.7731 1.9400 -2.5530 -0.5986 -1.8864 2.1677 -1.3038 0.3951 -0.8397 1.0446 -0.1494 4.1650 -4.1757 5.8133 -6.3285 0.9366 -3.1545 3.3340 -5.1374 5.3725 4.4643 -3.0322 4.9703 -5.1969 1.8192 -2.9364 -6.2163 -0.3803 -2.9048 2.8957 -0.3617 -4.5203 -1.8863 5.8861 -1.6792 2.1488 -1.3562 -4.0018 -1.3699 4.8667 -2.5838 2.7203 -5.0224 4.0612 3.9060 -2.9304 3.7513 -4.0317 1.3185 -2.4908 -4.9535 -0.9247 -2.4381 3.3438 0.7382 -3.6792 -1.9860 5.6397 -0.3582 1.7853 -1.3515 -2.5913 -0.9699 3.6704 -2.1093 -1.1631 -2.5298 1.0765 3.1861 0.8742 -0.0626 -0.2481 2.9378 1.4627 1.1746 -2.8580 1.9684 -2.3377 -0.8197 -0.4020 2.0335 -0.0810 -0.3584 -0.3171 2.3770 0.0394 1.5687 -1.4403 1.6311 -2.0240 0.4951 0.2813 2.9752 -3.9490 3.2911 -3.9098 -0.1047 -2.2225 2.9623 0.7602 -2.3941 -1.5745 4.3473 0.1369 2.1809 -0.3235 -1.8224 -1.0900 3.4102 -0.6923
1.6616 1.0838 -3.2526 4.8778 -4.7391 0.7946 -0.9017 -1.6135 0.7743 4.9272 -1.7403 -0.1047 -1.9924 0.3877 -1.2923 3.0095 0.3732 -1.4473 1.0734 1.8472 -1.0819 3.0769 -6.1989 0.2331 -3.2656 -1.6591 1.2184 3.8000 0.6203 0.9067 -0.6229 3.5377 -0.6661 2.7820 -2.6034 -0.3167 -1.1896 1.1325 0.7566 1.3538 3.5945 2.7792 -3.8440 5.9136 -2.1410 1.1827 2.3052 3.1230 2.3872 3.9609 1.8278 -4.0327 5.0106 -1.0203 -2.6571 5.9687 -2.7714 -0.0609 -6.4019 -1.9650 -6.1866 0.5918 2.0286 -0.0052 -5.1681 -2.5039 -5.4351 1.8160 2.2765 2.0101 1.2760 2.5187 3.1617 3.0100 1.2757 -3.0182 4.2306 -0.6092 -1.5553 5.1392 -2.3167 0.9621 -6.8438 -1.0290 -5.5582 -0.5183 1.5933 1.0718 -4.2542 -2.1496 -4.1006 1.8500 2.0903 1.5937 0.6843 -1.8910 3.4807 -4.7662 0.5522 -1.8963 -1.1366 1.6575 3.0302 -0.2537 -0.0679 -0.3910 2.1663 -1.2698 3.1788 -3.9403 -0.6969 -1.9786 0.3941 1.7175 3.7107 -1.5923 -0.1668 -1.2803 1.1270 -0.6178 2.9418 1.6108 1.6074 -1.7367 4.2875 -1.2919 1.9770 -6.0138 -0.7477 -4.1321 -0.4632 1.3766 2.0263 -4.6719 -1.3011 -3.4360 0.6593 1.6108
-1.8866 -2.4070 2.1283 5.2901 0.5177 0.6337 0.6620 1.8596 0.9479 2.4321 -0.1631 2.1574 -2.3831 1.9333 0.7545 0.1357 -2.4622 0.8864 -1.8834 -1.4688 -0.0541 5.5231 0.0396 -1.6909 0.0544 4.0828 0.2736 2.0468 -3.4941 2.0861 -3.7720 -0.3712 -1.1929 2.7012 -1.3233 0.1685 -1.1284 1.0940 -1.0138 2.3930 -4.7102 6.1757 -7.7187 1.1695 -0.6040 3.1547 -3.6930 5.7343 1.4591 -5.3621 5.2747 -7.3179 -0.0874 0.0023 -6.8300 1.8890 -1.3118 3.4424 -0.8727 -4.7857 -2.0006 5.9274 -2.3112 2.2483 -1.0317 -4.1819 -2.1579 4.8290 -3.2588 3.0510 -3.2561 4.3532 1.3493 -4.9458 4.0006 -6.0612 -0.5416 -0.1545 -5.4771 1.3947 -1.4907 4.6167 -0.5013 -4.0096 -1.3514 5.7390 -1.1454 2.1171 -0.8452 -2.7433 -1.6723 3.6030 -2.9805 -1.0957 -1.6522 1.2223 4.8837 -0.3914 -0.3771 0.6219 2.7297 -0.1622 1.2520 -2.2222 1.8752 -2.8275 -0.2868 -0.0099 3.3714 -0.2741 -0.5650 -0.2410 2.1977 -1.3168 2.1721 -1.1147 1.4247 -2.0948 1.0349 -0.0320 2.1669 -3.8426 3.5250 -5.1007 0.2355 -0.9212 4.4786 -0.2980 -2.6915 -0.8271 4.4266 -0.8668 3.2009 -0.4922 -2.0316 -0.9968 3.4084 -1.7214
1.6566 1.0222 -3.3319 4.7050 -4.7391 0.9641 -0.5806 -1.5201 0.8385 4.8437 -1.7305 -0.1376 -1.9613 0.3212 -1.2135 2.9799 0.3645 -1.4920 1.0613 1.8773 -1.1983 2.8397 -6.1371 0.4666 -2.9088 -1.7407 1.3811 3.7752 0.6868 0.8481 -0.6814 3.5412 -0.8175 2.6720 -2.5556 -0.1867 -1.1002 1.1913 0.7609 1.4193 3.8078 2.5930 -3.9044 5.7600 -2.5318 1.2224 2.5417 3.0021 2.4446 4.1018 1.6079 -2.7019 5.4909 -3.2997 -4.0323 5.2706 -1.2857 -0.2697 -6.3128 -1.7756 -5.9835 0.3004 2.1943 -0.1673 -5.0987 -2.3509 -5.3244 1.5866 2.3906 2.0179 1.4646 2.4400 3.1882 3.1066 1.0930 -1.7117 4.7538 -2.7655 -2.9617 4.4798 -0.7064 0.7257 -6.7564 -0.8108 -5.2761 -0.7752 1.7964 0.9299 -4.2056 -2.0043 -3.9971 1.7154 2.1935 1.5725 0.6756 -1.9568 3.3048 -4.7133 0.7389 -1.5707 -1.1002 1.7551 2.9809 -0.2051 -0.0886 -0.4184 2.1436 -1.3448 3.0248 -3.9127 -0.5315 -1.7732 0.4214 1.7838 3.6282 -1.5606 -0.1391 -1.2468 1.1144 -0.6062 2.9443 1.7319 1.5013 -1.8573 4.2101 -1.4256 1.7538 -5.9436 -0.5281 -3.8619 -0.6164 1.5585 1.8513 -4.6216 -1.1197 -3.2514 0.5634 1.7409
-1.8667 -3.1320 0.6421 4.8937 1.2752 0.2473 0.9953 2.5874 0.4057 2.2450 0.0645 1.4769 -1.9038 1.9319 1.1744 0.4099 -2.5695 0.3123 -1.3773 -1.0816 -0.4669 5.9535 0.3080 -1.6449 -0.0762 4.7444 0.3465 2.2182 -3.3356 1.8589 -3.5898 -0.0977 -0.9632 3.1034 -1.3865 -0.1124 -1.2332 1.7329 -1.0398 0.5471 -5.2884 5.2818 -7.5271 0.4753 0.6127 0.3788 -5.8383 4.0660 1.2764 -4.0410 5.4214 -6.6651 1.6058 0.3192 -7.0661 -0.7787 0.4591 5.2998 -2.0779 -4.5758 -3.0295 6.5667 -1.1609 4.0453 -2.4474 -4.2522 -3.4151 5.5490 -2.1334 0.9359 -5.1884 2.8941 1.7956 -3.4386 4.3368 -5.4102 1.4010 -0.1189 -5.7191 -1.0008 -0.0408 6.0172 -1.1167 -3.7520 -2.0039 6.3486 -0.3141 3.4074 -1.9291 -3.0498 -2.7514 4.3773 -2.2053 -0.9667 -2.0335 0.6313 5.0582 0.0445 -0.4407 0.4574 3.5603 -0.4629 1.3843 -2.1613 1.3925 -2.4219 -0.0920 0.0038 3.7023 -0.4051 -0.9899 -0.6842 3.0385 -1.3474 2.2691 -1.0338 0.9275 -1.8320 1.2997 0.1238 1.6010 -4.0256 3.0208 -4.9121 0.0458 -0.2967 5.4048 -0.6125 -2.6710 -1.3348 5.0705 -0.3690 4.0743 -1.0466 -2.2871 -1.6874 4.1312 -1.2597
-2.9236 -2.4082 2.1853 1.8565 -2.3858 -3.5297 0.4931 1.4492 1.7332 0.7836 -3.8712 -0.9237 -2.5058 1.4656 1.2786 -0.9303 -3.2947 1.2791 -2.3127 -1.7278 -0.0159 3.5675 -0.7271 -3.4089 0.0074 3.7529 1.2264 1.3065 -3.9027 2.1330 -3.5754 -0.2288 -1.5071 1.9201 -1.9209 -0.3776 -1.0830 0.9122 -0.4747 3.1825 -1.9278 5.4344 -7.1142 2.1063 -2.0477 3.8590 -2.0519 4.2784 1.8435 -2.4765 5.5554 -5.8064 2.7334 -1.9944 -7.2326 0.7777 -1.8743 6.1507 0.7574 -0.9895 -1.4783 5.9778 -1.4413 5.8152 0.0569 0.1118 -1.6423 4.9664 -2.4783 3.2457 -2.7262 3.1484 1.2733 -3.0997 4.5089 -4.7113 1.9849 -1.7750 -6.0483 -0.0331 -1.6497 5.4389 0.5470 -2.2417 -1.0453 5.6325 -0.2126 4.7310 -0.9149 0.0688 -1.3462 3.6752 -2.2289 -1.8117 -2.0705 1.3697 2.3780 -1.3606 -2.6999 0.5744 2.4264 0.7163 0.5352 -2.9187 1.2773 -3.0596 -0.4120 -0.0934 2.9197 -1.9909 -1.4187 -0.1921 2.0493 -0.5586 1.0768 -2.9860 -0.1258 -2.1994 0.7629 0.3193 1.9949 -3.2106 3.2520 -4.8378 0.5496 -1.5811 4.4685 -0.3774 -2.2809 -0.7536 4.2434 0.0492 4.0828 -1.1149 -1.0907 -0.8948 3.3117 -0.9053
-2.0925 -3.1189 0.7642 4.7846 0.9020 0.8714 0.8040 2.9092 0.8325 1.9508 -0.3413 2.0560 -2.0970 2.0275 1.0035 0.2642 -2.9804 0.6707 -1.1303 -1.1565 -0.1749 5.3050 0.6055 -1.4383 -0.5119 4.8089 0.1330 2.3149 -3.7387 1.8545 -3.3072 -0.3330 -0.9820 2.6978 -1.4000 0.1333 -0.8668 1.5276 -0.9042 2.4108 -5.2916 5.8433 -7.3181 0.5946 0.1856 1.7309 -5.9629 4.8964 3.1056 -4.0624 5.5044 -6.6128 -0.5207 0.7909 -6.7006 1.3677 -0.7254 3.7310 -0.5906 -4.7291 -3.0351 5.9107 -2.4664 2.5604 -1.0411 -4.2362 -2.9676 4.7315 -3.3217 1.6728 -5.4458 3.5404 3.0610 -3.5880 4.2469 -5.3413 -0.7844 0.4399 -5.3289 1.0826 -1.1061 4.7259 -0.0011 -3.8447 -2.3326 5.9636 -1.3170 2.2711 -0.9435 -2.8124 -2.2027 3.6773 -2.9750 -1.0132 -2.2066 0.9037 4.6703 -0.0186 -0.2022 0.3924 3.6509 -0.2964 1.3135 -2.6154 1.6936 -2.2502 -0.1755 0.0918 3.1900 -0.2107 -0.5208 -0.3737 2.8184 -1.3341 2.0118 -1.3294 1.3280 -1.7399 1.2474 0.1251 2.2968 -4.2944 3.2317 -4.6694 0.0579 -0.5363 4.4408 0.1064 -2.5390 -1.5299 4.8228 -0.9491 3.1895 -0.3945 -2.0002 -1.4741 3.7338 -1.7292
-3.4092 -2.6161 1.5368 1.8313 -2.6759 -3.4978 0.1051 1.0305 2.5630 0.7740 -3.9364 -0.7933 -2.5924 1.5284 1.1263 -1.1569 -3.2619 1.1906 -2.2817 -1.6588 -0.3204 3.3865 -0.8597 -3.5069 0.1695 3.3865 2.0919 1.0640 -3.5568 2.2472 -2.9333 0.1519 -1.8782 1.6710 -1.8243 -0.4355 -0.7264 0.7365 -0.0206 2.2377 -1.1070 5.5516 -6.8336 1.0613 -3.3598 2.9633 -1.0612 4.4198 1.1000 -2.0038 5.6511 -6.1888 1.9372 -2.3974 -6.2276 -0.0739 -3.7509 5.6429 1.1766 -1.1615 -0.4028 5.8318 -0.7277 5.3118 0.5775 -0.0006 -0.3838 4.8762 -1.8294 2.5973 -1.8962 3.2901 0.7588 -2.7767 4.6050 -4.9779 1.6218 -1.9034 -4.9232 -0.4180 -3.2170 5.0372 0.7446 -2.4129 -0.3405 5.4051 0.5496 4.3367 -0.5039 0.0227 -0.2961 3.5535 -1.5871 -2.1475 -2.1241 1.1129 2.2146 -1.5111 -2.7848 0.6528 1.9926 1.6831 0.2673 -2.7514 1.2424 -2.8684 -0.2662 -0.4260 2.7326 -1.9244 -1.4090 0.2587 1.7660 0.2168 0.9150 -2.9314 -0.1031 -2.0629 0.7668 0.3215 1.5230 -2.7025 3.3709 -4.3260 0.3915 -2.3253 4.1756 -0.2824 -2.3879 -0.2321 3.9872 0.7955 3.7895 -0.9081 -1.1358 -0.2049 3.1086 -0.2165
-2.9490 -2.6566 0.9568 4.0231 0.9070 1.8362 -2.7649 4.0277 -2.0785 1.3077 -0.6098 2.5740 -4.1207 1.9947 0.2880 -0.5976 -2.5935 0.5909 -1.8500 -0.4811 0.8950 4.5422 1.4146 -0.4190 -0.6517 5.0677 -1.5730 1.5045 -3.7873 1.2522 -2.7519 -0.5876 -1.4505 1.9079 -0.9997 0.3720 -1.9014 2.0706 -0.3967 3.0204 -5.4321 4.9081 -6.3723 -1.9333 -3.3083 1.9974 -6.0486 4.2890 3.6088 -4.2381 4.3276 -5.7729 -2.6883 -2.2251 -5.8401 -0.7565 -3.6831 3.1175 1.2054 -3.9631 2.3581 4.7168 0.6637 1.9338 0.6328 -3.6709 1.8069 3.7386 1.5913 1.4807 -5.5197 3.0387 3.1387 -3.7558 3.1640 -4.6438 -2.2474 -1.6444 -4.6151 -0.2835 -3.0611 4.0516 1.5522 -2.9055 1.6698 5.0774 -0.4373 1.5922 0.3000 -2.2968 0.5944 3.1935 1.3707 -1.7755 -1.9413 1.2731 3.9108 0.3933 0.5179 -1.9615 4.5035 -1.0155 0.5701 -2.6329 1.5488 -2.9602 -0.0679 -0.0408 2.4334 0.3200 0.1363 -1.6181 3.4217 0.0239 1.2950 -1.3118 1.5658 -3.0727 1.4355 -0.0272 2.0126 -4.4034 2.5085 -4.0365 -1.0007 -2.0808 3.7067 1.2869 -1.6383 0.3641 4.4984 -0.6541 2.4570 0.6194 -1.3208 -0.1495 3.5990 0.1981
-2.0704 -2.8487 1.8229 4.6863 0.9644 1.1108 0.7601 1.8942 0.9529 1.9997 -0.3802 2.4013 -2.1666 1.7261 0.8718 0.0537 -2.7353 0.7709 -1.8992 -1.6192 -0.1993 5.0683 0.8588 -1.2414 0.1578 4.0658 0.1374 2.0387 -3.7212 1.9028 -3.6895 -0.2989 -1.2768 2.5501 -1.2720 0.3328 -0.9862 0.9639 -0.9817 2.8885 -5.0460 5.8863 -7.6518 1.1470 -0.5836 3.4756 -3.9227 5.4356 1.9778 -5.7837 5.0283 -6.5277 2.0633 -0.6493 -7.4474 -0.1792 -0.6754 3.3293 -0.1135 -4.5236 -1.7633 5.7857 -2.6173 2.1954 -0.6221 -4.0024 -1.9625 4.6257 -3.4785 3.2012 -3.4521 4.0896 1.7088 -5.3376 3.7881 -5.2815 1.5872 -0.8184 -6.1022 -0.6938 -0.8645 4.3653 0.4215 -3.6518 -1.1797 5.6508 -1.4099 1.9903 -0.6480 -2.5610 -1.5667 3.4000 -3.0811 -1.2137 -1.9786 1.0987 4.5114 0.1316 -0.0242 0.7196 2.6876 -0.2150 1.1170 -2.5221 1.8226 -2.7663 -0.3833 -0.0777 3.0173 -0.0477 -0.2750 -0.1538 2.0939 -1.3306 1.9165 -1.2697 1.5577 -1.9475 0.8852 0.0037 2.3298 -4.1149 3.3063 -5.0586 0.1533 -0.9184 4.1523 0.4256 -2.3279 -0.7619 4.3334 -0.9956 2.9404 -0.1368 -1.7609 -0.9547 3.2622 -1.7792
-2.1663 -2.9865 1.1337 5.0446 0.5171 0.6930 1.0695 2.3734 -1.9466 2.1025 -0.4297 1.9503 -1.0886 2.1632 0.4652 0.1605 -2.9537 0.6858 -1.3111 -1.1721 -0.1487 5.4348 0.1891 -1.6346 -0.0449 4.5111 -1.9501 2.1977 -3.8546 1.7759 -3.5669 -0.1741 -0.2039 2.6994 -1.5730 0.0261 -1.4945 1.3142 -1.6538 2.9854 -4.9477 5.8365 -6.7669 1.3188 2.2142 2.0543 -5.6304 5.1456 3.7151 -3.8645 5.2011 -6.1602 2.1380 1.1822 -6.3039 0.0764 2.4440 3.6133 -0.8101 -4.8642 -3.5193 6.0153 -1.7580 2.4261 -1.1506 -4.3264 -4.2724 4.8117 -2.0892 1.7597 -5.2661 3.7715 3.4519 -3.5357 3.9243 -5.1234 1.6654 0.4689 -5.2001 -0.4450 1.6552 4.6903 -0.3125 -4.0216 -2.1757 5.9768 -1.6600 2.2163 -1.0579 -2.8900 -3.6405 3.6398 -2.2954 -1.0551 -2.1144 1.0010 4.7982 -0.3873 -0.3742 0.0564 3.1207 -2.5824 1.2794 -2.6562 1.6585 -2.1417 0.0165 0.2867 3.2935 -0.4392 -0.6371 -1.3293 2.4647 -2.5192 2.0571 -1.4305 1.2384 -1.5316 1.2875 -0.2746 2.4134 -4.2426 3.1924 -4.6036 0.3336 0.7336 4.4794 -0.2096 -2.7017 -1.5130 4.7156 -1.8775 3.2164 -0.6091 -2.1141 -2.2058 3.6043 -2.1611
-0.8196 -3.4590 -1.3149 4.9649 -4.5374 -1.5511 0.6659 1.2914 -1.8110 2.6819 -4.2196 0.4054 -1.2323 1.3996 0.6683 0.2518 -1.7062 -0.1315 -2.0778 -1.4914 -0.9717 5.6656 -2.8083 -3.0368 0.5329 3.6426 -1.2905 1.4843 -1.6576 2.0510 -4.0877 -0.3441 -0.0790 2.9519 -2.1865 -0.6765 -2.1018 1.3388 -1.4882 -1.0686 -2.5564 5.3742 -6.1313 1.7175 3.0652 -1.3179 -1.4634 4.6307 0.0628 -3.4087 5.0544 -5.6810 0.3489 3.2456 -5.8444 2.3759 1.9281 5.6170 1.0058 -3.4653 -1.9934 6.3776 -0.5781 4.9195 1.3196 -2.3559 -3.1884 5.6702 -1.0239 -0.4606 -1.1413 3.5042 0.8592 -3.1107 4.0121 -4.9934 -0.2703 2.2688 -5.1211 1.7018 0.8651 5.9150 -0.3840 -3.7795 -0.7913 5.7675 -0.5927 4.4514 0.2740 -1.4569 -3.1045 4.4041 -1.4796 -1.0564 -2.4256 -0.3681 4.5457 -3.3176 -2.1400 0.0544 2.5045 -2.1953 1.1056 -2.4836 0.8434 -2.5799 -0.4689 0.0269 4.3493 -2.2704 -1.0422 -1.4795 2.4704 -2.1380 2.3349 -3.0609 0.1910 -1.8908 0.8564 -0.2148 0.5770 -1.9404 3.1954 -4.7071 0.4317 1.0287 5.5214 -1.3353 -2.9204 -0.7207 4.4006 -1.0472 4.7512 -1.0064 -1.7346 -1.8142 3.7548 -1.4748
-1.6634 -3.8246 0.3635 4.6547 -4.3750 -1.5729 0.0748 0.4417 -2.3856 2.6501 -4.0499 0.6971 -1.1628 1.4012 0.3000 -0.1383 -2.0152 0.2006 -2.5773 -1.6804 -0.0185 5.0769 -2.6723 -3.1843 0.1473 2.8460 -2.5009 1.3246 -1.3359 2.1176 -4.2890 -0.0275 0.6663 2.6059 -2.1045 -0.5652 -2.5225 0.8280 -1.4981 1.8076 -2.9479 6.0591 -5.5633 3.1777 3.1977 2.8975 -2.7335 5.3003 0.4906 -2.6074 5.5507 -5.4287 1.8284 3.7171 -5.2428 3.4428 1.9188 4.8234 1.1234 -3.6866 -2.0486 5.9037 -2.1090 4.2478 1.4399 -2.5101 -3.3393 5.2246 -2.0999 2.7544 -2.1741 3.9680 0.3572 -2.0842 4.3187 -4.9831 0.8398 2.9207 -4.7866 2.3714 1.0528 5.1515 -0.2605 -3.9967 -0.9026 5.1964 -2.1675 3.9283 0.4016 -1.5401 -3.4074 3.8800 -2.1664 -1.4960 -2.4537 0.6989 4.0951 -3.2062 -2.1503 -0.5666 1.5677 -2.9476 0.9502 -2.4413 1.1557 -2.8012 -0.3161 0.6011 3.9622 -2.1331 -1.0686 -2.0462 1.6923 -2.5553 2.1600 -2.9573 0.4218 -2.0640 0.7345 -0.2013 1.5328 -1.8770 3.4880 -4.6396 1.1248 1.5379 4.8968 -1.2028 -3.0772 -0.9888 3.7575 -2.2146 4.2425 -0.8738 -1.8237 -2.1738 3.1308 -2.2117
-1.4249 -1.5163 2.9910 5.3767 0.3880 0.0678 0.6714 1.5109 -1.6301 2.7332 -0.0912 1.9094 -1.6181 2.5436 0.1132 0.1291 -2.1414 1.3037 -1.8947 -0.8799 0.7586 5.4918 -0.5270 -2.1291 -0.1439 3.5182 -2.6826 2.0345 -3.4927 2.1353 -4.0528 0.3100 0.6713 2.8345 -1.5822 0.1367 -2.0279 0.8783 -1.4576 3.6313 -4.4922 5.9806 -6.6058 2.9724 2.8377 2.3500 -4.7954 5.7053 4.4468 -3.8188 4.9853 -6.3331 3.1770 1.4278 -6.0074 1.9654 3.4994 3.2801 -2.0965 -4.8457 -3.3294 5.1016 -3.9866 2.1291 -2.1691 -4.1477 -4.1602 3.9033 -3.9921 1.7828 -4.4500 4.4139 3.9210 -3.4928 3.7912 -5.4870 2.3585 0.7784 -5.1120 1.0641 2.7941 4.4778 -1.5372 -4.2363 -2.0604 5.0519 -3.5358 2.0736 -1.7122 -2.7671 -3.6750 2.7308 -3.5381 -0.8116 -1.0627 1.7928 4.9490 -0.7147 -0.7183 -0.1083 1.9883 -2.7057 1.4476 -2.1006 2.0433 -2.5583 0.4762 0.8553 3.4244 -0.6834 -0.8275 -1.5549 1.4739 -2.6891 2.3972 -1.1421 1.3681 -2.0089 1.4197 -0.1891 2.5307 -3.8059 3.4991 -4.8472 1.2626 1.4898 4.4074 -1.0860 -2.9761 -1.5551 3.7929 -3.0500 3.1795 -1.1917 -2.2091 -2.3226 2.6945 -3.0355
-0.7682 -1.1635 3.2893 6.0548 -0.3592 -0.6478 0.9889 2.5035 -0.8632 3.4355 0.2069 1.7523 -1.7371 2.5484 0.3780 0.6858 -1.8953 1.5583 -1.5019 -0.9507 1.0442 5.2540 -0.8119 -2.8505 -0.3372 3.9599 -2.2627 2.7051 -2.9955 2.5137 -3.7241 -0.0566 0.5083 3.1320 -1.3681 0.0783 -1.2349 0.8269 -1.0990 2.1565 -4.2895 6.5588 -6.9519 2.3044 2.0299 1.3978 -4.8311 5.5889 3.1397 -3.2724 6.2303 -6.2382 1.3829 2.8958 -6.5707 2.4576 0.7493 2.0018 -1.2359 -4.8470 -3.3075 3.9846 -4.6000 1.1306 -1.1522 -3.8225 -3.5826 2.5524 -4.5900 1.5623 -4.3963 4.2132 3.2918 -2.8686 4.9563 -5.2041 0.6689 2.4151 -5.4595 1.6826 0.2276 3.4334 -1.1199 -4.6085 -2.3441 4.5043 -3.8132 1.6069 -0.9356 -2.4639 -2.8785 1.7250 -3.7921 -0.3204 -0.8467 1.9788 5.0795 -1.0992 -1.3640 0.3155 2.5858 -2.1005 2.0335 -1.6736 2.2059 -2.3326 0.3136 0.9839 3.6938 -0.5800 -0.9917 -0.7769 1.5235 -2.2807 2.9315 -0.8330 1.3343 -1.7390 1.3602 0.0661 2.4571 -3.4378 3.9104 -4.7905 0.8359 1.0312 3.8592 -0.8783 -3.3601 -1.6071 3.6107 -2.9522 2.9243 -0.7810 -2.2534 -1.8639 2.2939 -2.9350
-2.3509 -2.4364 1.8239 4.2933 1.7311 1.5853 -3.1334 3.6931 -2.1982 1.9499 -0.1343 2.7979 -3.9105 1.9835 0.5667 -0.0827 -2.2734 1.0977 -1.4531 -0.2283 1.2984 4.5358 1.9861 -0.7561 -0.9572 4.7389 -2.3131 2.1342 -3.3439 1.6162 -2.5182 -0.7703 -0.9273 2.3299 -0.6116 0.5650 -1.8025 2.0826 -0.4005 1.3042 -6.8687 3.9080 -6.1972 -2.5637 -2.2110 0.9678 -6.8365 2.6061 1.9371 -5.7176 4.5280 -5.4401 -3.1334 -1.1129 -5.7777 -1.4295 -2.7996 2.7035 1.3587 -4.0573 2.3305 5.0534 -0.4701 1.6370 0.6940 -3.5720 1.9671 4.2909 0.7181 1.2515 -5.6518 1.8173 2.2033 -4.6213 3.7950 -4.2887 -2.5606 -0.7205 -4.5303 -0.8129 -2.3797 3.7304 1.8640 -3.1613 1.4736 5.1593 -1.5054 1.5199 0.4227 -2.1471 0.7553 3.7087 0.8132 -1.2094 -1.6096 1.8528 4.1260 1.0351 0.3605 -2.1467 4.3506 -1.4304 1.1716 -2.2225 1.9423 -2.6500 -0.0396 0.3972 2.6400 0.7361 0.1524 -1.6152 3.5078 -0.2565 1.8524 -0.8824 1.8277 -2.8709 1.4400 0.1987 1.8273 -4.5782 2.3892 -3.8155 -1.3510 -1.3749 3.6018 1.6266 -1.8490 0.1857 4.5165 -1.3949 2.4827 0.8674 -1.3234 -0.1613 3.8305 -0.2967
1.2267 2.2586 3.1482 1.1293 -3.0151 -2.9976 -4.4926 -0.1877 -1.7594 1.4548 -0.3121 -1.5024 -1.6963 -0.4049 -0.6886 1.5693 0.3078 1.8322 -0.4586 1.7410 1.5548 0.7720 -5.0814 -1.8629 -6.3837 0.5927 -0.5187 3.8299 -0.3733 0.9923 -0.7673 2.9509 -0.6436 1.6694 -2.0656 -0.0006 -3.0962 1.2736 0.0796 6.8377 1.2343 -1.6013 3.0147 4.0830 -2.3222 6.6102 1.8288 -0.4162 6.0780 0.0568 -1.9807 2.6801 4.4069 -0.9480 2.1287 3.4280 -3.0937 -0.0121 -6.5225 1.6050 -7.3672 2.2609 2.7186 -0.0286 -5.3680 2.2993 -6.0652 2.2115 3.3727 5.5962 1.3003 0.4791 5.1474 -0.4407 -1.1474 1.4825 4.0554 -0.4475 0.8415 3.0319 -2.5473 0.2363 -6.5161 0.1710 -7.5067 1.8417 1.4457 0.1999 -4.0969 1.6261 -4.9857 1.7370 2.7191 1.0234 1.7164 1.8553 1.4148 -3.7027 -1.7904 -5.0698 -0.1854 -0.4684 2.4528 0.1307 0.6193 -0.6951 1.6193 0.0682 0.7385 -2.9724 -0.6314 -4.1665 0.4537 0.6055 1.7937 -0.7539 -0.4068 -1.8665 0.7201 -0.2217 4.8792 0.2197 0.1210 0.5374 3.3124 -1.2668 0.3987 -5.3378 -0.4478 -6.3402 1.3514 0.7528 0.3950 -4.0904 0.2968 -5.1397 1.3022 1.3488
-2.5893 -2.3143 2.3785 1.5504 -2.1587 -3.4167 0.9944 1.6898 1.6018 1.3298 -3.6834 -0.6146 -1.9679 1.7580 0.9758 -0.5085 -3.1180 1.5898 -1.9183 -1.6747 0.1819 2.4556 0.0379 -3.5613 0.5468 3.8164 0.5293 1.8222 -3.5875 2.3255 -3.2652 -0.2614 -1.3385 1.8737 -1.4500 -0.2866 -0.5355 0.7276 -0.5316 2.2135 -2.7314 6.4985 -7.5083 0.3235 -1.2284 2.8429 -1.9378 5.6132 1.3877 -3.8300 6.0309 -6.5984 1.4494 -1.3425 -7.0202 -0.9278 -1.1536 4.5818 2.5365 -1.5724 -0.5928 5.3507 -2.7400 4.7348 1.8158 -0.4444 -0.6517 4.1224 -3.5247 2.7114 -2.1921 4.1894 1.2507 -4.0559 4.7125 -5.2687 1.2441 -1.3568 -5.5843 -1.1511 -1.1772 3.8355 1.9921 -2.6974 -0.2818 5.3112 -1.4288 4.1391 0.4919 -0.3305 -0.4007 2.9281 -2.9522 -1.4616 -1.9443 1.5991 1.7342 -0.9657 -2.6718 1.1389 2.4113 0.3979 0.9320 -2.6539 1.5298 -2.6193 -0.3409 0.0303 2.6567 -1.2651 -1.4900 0.4635 1.7376 -0.8028 1.3961 -2.6860 0.0969 -1.6857 0.8340 0.2177 1.9302 -3.1980 3.7549 -4.7402 -0.1052 -1.2446 3.3391 0.7499 -2.6040 -0.0336 4.0260 -0.8230 3.4677 -0.0166 -1.3781 -0.0968 2.8956 -1.5412

>  <OB_ATOM_TYPES> (4phvB1)
O.3 O.3 O.3 O.2 O.2 C.3 C.3 C.3 C.3 C.3 C.3 N.am N.am C.ar C.ar C.ar C.ar C.ar C.ar C.ar C.ar C.ar C.ar C.ar C.ar C.ar C.ar C.ar C.ar C.ar C.ar C.3 C.3 C.3 C.3 C.3 C.3 C.3 C.2 C.2 C.ar C.ar C.ar C.ar C.ar C.ar

>  <ENSEMBLE_RMSD> (4phvB1)
2.595 2.780 2.854 2.869 2.901 2.903 3.039 3.085 3.143 3.148 3.193 3.258 3.293 3.332 3.391 3.457 3.461 3.515 3.524 3.530 3.551 3.553 3.565 3.587 3.612 3.656 3.774 3.818 3.822 3.835 3.839 3.870 3.956 3.958 3.994 4.067 4.096 4.112 4.136 4.140 4.226 4.240 4.311 4.389 4.444 4.522 4.526 4.585 4.673 4.676

$$$$
