
 OpenBabel03071213D

 11 13  0  0  0  0  0  0  0  0999 V2000
   43.9840   44.8270   15.4210 O   0  0  0  0  0
   48.0410   44.1310   12.8760 C   0  0  0  0  0
   45.8530   45.3610   12.4280 C   0  0  0  0  0
   47.2030   45.9790   14.5080 C   0  0  0  0  0
   45.7160   42.9290   13.3000 C   0  0  0  0  0
   47.2190   43.5230   15.2620 C   0  0  0  0  0
   47.2870   45.5450   12.9900 C   0  0  0  0  0
   47.2400   43.0910   13.7520 C   0  0  0  0  0
   45.0250   44.2900   13.3020 C   0  0  0  0  0
   46.4610   44.9700   15.3710 C   0  0  0  0  0
   45.0150   44.7760   14.8050 C   0  0  0  0  0
  1 11  2  0  0  0
  2  7  1  0  0  0
  2  8  1  0  0  0
  3  7  1  0  0  0
  3  9  1  0  0  0
  4  7  1  0  0  0
  4 10  1  0  0  0
  5  8  1  0  0  0
  5  9  1  0  0  0
  6  8  1  0  0  0
  6 10  1  0  0  0
  9 11  1  0  0  0
 10 11  1  0  0  0
M  END
>  <MOLID> (5cppA1)
5cppA1

>  <SMILES_CANONICAL> (5cppA1)
O=C1[C@@H]2C[C@@H]3C[C@H]1C[C@H](C2)C3	

>  <FINGERPRINT> (5cppA1)
0000000000000001000000000000000000000001000000000000000000000000000000000000000000000000000000000000000000000000000000000000000000000000000000000000000000000000000000000000000000000000000000000000000000000000000000000000000000000000000000000000000000000000000000000000000000000000000000000000000000000000000000000000000000000000000000000000000000000000010000000000000000010000000000000000010000000000100000000000100000000000000000000000000000000000000000000000000000000000000000000000000000000000000000000000000000000000000000000000000000000000000000000000000000000000000000000000001000000000001000000000000000000000000000000000000000000001000000000000000000000000000000000000000000000000000000100000000000000000000000000000000000000000000000000000000000000000000100000000000000000000000000000000000000000000000000000000000000000000000000000000000000000000000000000000000000000000000000000000000000000000000000000000000000000000000000000000000000000000000000000000000000000010000000000000000000000000000000000000000000000000

>  <MACCS166> (5cppA1)
000000000000000000000000000000000000000000000000000000000000000000000000000000000000000000000000000000001000000000000000000000110000000100010010110000010100001000111000

>  <OB_MW> (5cppA1)
150.104

>  <OB_logP> (5cppA1)
2.0116

>  <OB_PSA> (5cppA1)
17.07

>  <OB_MR> (5cppA1)
44.042

>  <OB_ATOMIC_CHARGES> (5cppA1)
-0.2960844672 4.65701e-05 0.0073323963 0.0073323963 0.0073323963 0.0073323963 0.000839355 0.000839355 0.0576056038 0.0576056038 0.1498183944

>  <MCT_HBD> (5cppA1)
0

>  <MCT_HBA> (5cppA1)
1

>  <ENSEMBLE_TOTAL> (5cppA1)
1

>  <ENSEMBLE_COORDS> (5cppA1)
-2.2927 0.3341 1.4196 1.7643 -0.3619 -1.1254 -0.4237 0.8681 -1.5734 0.9263 1.4861 0.5066 -0.5607 -1.5639 -0.7014 0.9423 -0.9699 1.2606 1.0103 1.0521 -1.0114 0.9633 -1.4019 -0.2494 -1.2517 -0.2029 -0.6994 0.1843 0.4771 1.3696 -1.2617 0.2831 0.8036

>  <OB_ATOM_TYPES> (5cppA1)
O.2 C.3 C.3 C.3 C.3 C.3 C.3 C.3 C.3 C.3 C.2

>  <ENSEMBLE_RMSD> (5cppA1)
0.000

$$$$
