
 OpenBabel03071213D

 37 37  0  0  0  0  0  0  0  0999 V2000
   41.4910  -12.0850    9.8090 C   0  0  0  0  0
   43.1450  -14.9660    7.2560 C   0  0  0  0  0
   38.3870   -6.4960    2.0040 C   0  0  0  0  0
   36.8870   -4.6090    1.6280 C   0  0  0  0  0
   35.1140  -14.5740    5.5950 C   0  0  0  0  0
   33.2810  -13.0900    4.9680 C   0  0  0  0  0
   38.3010  -13.0100    9.5750 C   0  0  0  0  0
   34.8830   -8.9140    2.0700 N   0  0  0  0  0
   34.8400   -8.2350    4.7810 O   0  0  0  0  0
   38.2960  -15.1060    7.4340 O   0  0  0  0  0
   37.5530  -12.8830    4.6450 O   0  0  0  0  0
   42.3860  -17.2510    5.6460 O   0  0  0  0  0
   40.6630  -13.0470    8.9550 C   0  0  0  0  0
   36.4000  -10.0830    4.4700 C   0  0  0  0  0
   35.9240   -6.7550    2.6110 C   0  0  0  0  0
   40.3720  -16.1470    4.1310 C   0  0  0  0  0
   35.3670  -10.8190    4.8460 N   0  0  0  0  0
   40.0140  -14.6280    6.0300 N   0  0  0  0  0
   37.5410  -12.3800    6.8530 N   0  0  0  0  0
   42.0980  -15.9000    7.4770 O   0  0  0  0  0
   36.5570  -17.1560    2.3440 C   0  0  0  0  0
   36.5990  -16.4360    3.5440 C   0  0  0  0  0
   37.7480  -17.5520    1.7240 C   0  0  0  0  0
   37.8320  -16.1110    4.1230 C   0  0  0  0  0
   38.9810  -17.2280    2.3030 C   0  0  0  0  0
   36.9420   -6.1370    1.6530 C   0  0  0  0  0
   34.8040  -13.2220    4.9470 C   0  0  0  0  0
   39.3040  -12.4700    8.5540 C   0  0  0  0  0
   36.0430   -8.2750    2.7100 C   0  0  0  0  0
   36.0700   -8.6090    4.1960 C   0  0  0  0  0
   40.3100  -16.0180    5.6550 C   0  0  0  0  0
   35.5180  -12.0550    5.6330 C   0  0  0  0  0
   38.9210  -12.7960    7.1110 C   0  0  0  0  0
   39.0550  -14.3010    6.8730 C   0  0  0  0  0
   36.9810  -12.4800    5.6680 C   0  0  0  0  0
   41.6600  -16.4400    6.2390 C   0  0  0  0  0
   39.0240  -16.5060    3.5020 C   0  0  0  0  0
  1 13  1  0  0  0
  2 20  1  0  0  0
  3 26  1  0  0  0
  4 26  1  0  0  0
  5 27  1  0  0  0
  6 27  1  0  0  0
  7 28  1  0  0  0
  8 29  1  0  0  0
  9 30  1  0  0  0
 10 34  2  0  0  0
 11 35  2  0  0  0
 12 36  2  0  0  0
 13 28  1  0  0  0
 14 17  1  0  0  0
 14 30  1  0  0  0
 15 26  1  0  0  0
 15 29  1  0  0  0
 16 31  1  0  0  0
 16 37  1  0  0  0
 17 32  1  0  0  0
 18 31  1  0  0  0
 18 34  1  0  0  0
 19 33  1  0  0  0
 19 35  1  0  0  0
 20 36  1  0  0  0
 21 22  1  0  0  0
 21 23  2  0  0  0
 22 24  2  0  0  0
 23 25  1  0  0  0
 24 37  1  0  0  0
 25 37  2  0  0  0
 27 32  1  0  0  0
 28 33  1  0  0  0
 29 30  1  0  0  0
 31 36  1  0  0  0
 32 35  1  0  0  0
 33 34  1  0  0  0
M  END
>  <MOLID> (5er1A1)
5er1A1

>  <SMILES_CANONICAL> (5er1A1)
CC[C@@H]([C@@H](C(=O)N[C@H](C(=O)OC)Cc1ccccc1)NC(=O)[C@H](C(C)C)NC[C@@H]([C@H](CC(C)C)N)O)C	

>  <FINGERPRINT> (5er1A1)
0000000000000001000000000000000000000001000000000111010000001000000000000001000000000001000000000000010000000001000001110000000000000000000010000000000010000000000000000000000000000000000000000000000000000000000000000000000000100000000000000000000000001100000000000000000000001000100000000000000000001000000010011100000000001000001100000000000000000000010000000000000110110000000000000000011000000000100000000000001000000000000000000010000000000011100000000001100000010000000000000000000000001000000000000000100000010000000000100000000000000000000000100000000000000000000000000000000001000000001000000000100000000000000000000000001000000001000000000000000000000001000000000011100000100100000011100001000000010011000000000000000001000011100000110101000000000000000110000000000000000000000010000000000010000000000000000000000000000000000000001000000000000000000000000001000000000000000000000000000100001100000000000000001000000000000000000000011000000000000100110010000000000000010000000000000000000000000000000010011000000000

>  <MACCS166> (5er1A1)
000000000000000000000000000000000000000000000000010011000000000000000000010100110001000001111010001000010001011001101000001001001011000101111100010010111111111110111000

>  <OB_MW> (5er1A1)
520.362

>  <OB_logP> (5er1A1)
3.6393

>  <OB_PSA> (5er1A1)
142.78

>  <OB_MR> (5er1A1)
146.314

>  <OB_ATOMIC_CHARGES> (5er1A1)
7.00295e-05 0.2556573813 4.80991e-05 4.80991e-05 0.0019391663 0.0019391663 0.0022754234 -0.1301828163 -0.2200420751 -0.2714748836 -0.2718278566 -0.2481818194 0.0022062671 0.1234687661 0.0216724625 0.0594472639 -0.207491562 -0.1939554521 -0.1966148914 -0.443217717 -2.0017e-05 -0.0003216855 -0.0003216855 -0.0041973011 -0.0041973011 0.001522337 0.0249335669 0.0289614418 0.123517928 0.1866711922 0.1977766361 0.1503950699 0.1726918956 0.2616742362 0.257570006 0.3374476274 -0.019886998

>  <MCT_HBD> (5er1A1)
5

>  <MCT_HBA> (5er1A1)
9

>  <ENSEMBLE_TOTAL> (5er1A1)
50

>  <ENSEMBLE_COORDS> (5er1A1)
3.5941 2.1292 -0.2112 5.1355 -3.1825 3.8342 0.2765 7.7056 -0.0941 -1.8875 8.5498 -0.9167 -4.6176 0.7133 1.6529 -4.8780 -0.1043 -0.6701 2.0415 -0.2384 -1.3750 -0.8854 5.0034 -2.7974 -3.7395 3.9333 -2.6651 -0.2396 -2.4349 0.9575 -1.5336 0.8212 2.1021 3.6519 -5.1354 2.8121 2.1984 1.7083 0.1820 -2.1845 2.9518 -1.1449 -1.4965 6.1037 -0.6951 2.7418 -4.0269 0.1091 -2.8932 2.3760 -0.0113 1.9752 -2.2167 1.5777 -0.4420 0.1351 0.1739 4.2062 -2.9043 2.7869 -0.4688 -5.7633 -2.1360 0.1628 -6.5027 -1.0578 -0.0447 -4.5244 -2.4420 1.1648 -5.9455 -0.3537 1.0478 -3.9296 -1.6946 -0.8731 7.4398 -1.0335 -3.9000 0.1441 0.4505 2.0253 0.2102 0.0689 -1.9869 5.3815 -1.9303 -2.8937 4.2223 -1.5641 2.3221 -3.6183 1.5086 -2.6857 0.9332 -0.0164 0.7927 -0.2480 0.8293 0.7681 -1.7442 1.0955 -1.5126 0.6386 0.8882 3.4428 -3.9799 2.4564 1.6155 -4.6010 -0.6761
-0.1350 1.9278 3.9722 5.5032 -2.7328 -0.4323 -1.5293 9.1383 -3.3675 -2.2700 9.4204 -1.0299 -3.2312 -0.6762 -0.4545 -4.1413 1.1148 -1.8368 1.5934 -1.2048 3.6294 -2.2462 5.4335 -2.8086 -0.8118 5.7477 0.5564 -0.5824 -2.4945 1.1433 0.2510 1.2734 -0.8263 3.5574 -4.0789 -1.6439 1.0336 1.1665 3.3965 -2.1289 3.9243 -0.1575 -1.2064 7.3054 -1.7504 1.9205 -4.5269 1.1481 -1.9705 2.8261 -1.0962 1.6302 -2.1710 0.5012 -0.7008 0.2939 1.0451 4.1914 -2.7509 0.1295 0.4718 -8.2651 -0.3681 -0.4459 -7.1888 -0.0414 1.7925 -8.1055 -0.1702 0.0217 -6.0335 0.4645 2.2993 -6.8570 0.3720 -2.1130 8.4401 -2.1646 -2.8626 0.5546 -1.2531 0.6018 -0.2360 3.0254 -2.0098 6.0441 -1.5065 -1.2500 5.0721 -0.6159 1.9359 -3.5011 0.0307 -2.1213 1.5640 -0.3845 0.5003 -0.3576 1.5162 0.4175 -1.7924 1.0414 -0.7205 1.0507 -0.1098 3.3040 -3.4737 -0.6083 1.4513 -5.8511 0.6544
0.3072 -3.4385 4.3820 4.4630 -4.8349 2.7686 -3.3628 6.4105 -5.2053 -2.0786 4.3344 -5.5203 -0.5905 4.3281 2.9191 -2.8600 3.4782 3.4527 1.2087 -0.0556 4.9767 -2.0332 5.3525 -1.5142 -3.9533 2.3204 -2.1817 -0.2796 -1.9806 0.9952 0.6922 1.7936 0.8559 2.8145 -5.4701 0.7985 -0.1712 -2.0082 4.3058 -2.2582 2.3586 -0.5550 -3.3294 4.7145 -3.4125 2.9328 -2.8608 -0.9484 -1.6901 3.1278 0.5379 2.0378 -2.0087 1.1471 -0.2895 0.3700 2.4006 3.8073 -3.8018 2.0320 0.6413 -3.8549 -4.4282 0.9216 -2.4716 -4.0878 1.0845 -4.8469 -3.6358 1.6196 -2.1782 -2.9756 1.8552 -4.5323 -2.4473 -2.5214 5.3663 -4.5132 -1.4741 3.1040 2.9912 0.9813 -1.1111 3.9224 -2.4416 4.1922 -2.2972 -3.1888 3.2211 -1.3886 2.2298 -3.1881 0.3496 -1.5228 2.2848 1.7125 0.8530 -0.4994 2.5418 0.7710 -1.5673 1.4764 -0.2450 1.4877 1.5871 2.9681 -4.2855 1.0780 2.1012 -3.2502 -2.1197
2.3782 -0.0835 4.8476 3.3171 -4.1200 4.3555 -3.9455 6.9628 -3.5305 -1.7738 6.4795 -2.4780 1.3761 3.6991 -1.6594 0.0356 4.9112 0.0398 3.2047 1.3368 2.2618 -4.6847 4.9988 -0.0323 -3.5914 2.4957 0.6849 -0.2411 -1.7405 1.1983 0.2012 0.4060 -1.3970 1.3662 -5.3865 3.0643 1.5354 0.0537 3.6017 -2.6445 2.0864 -1.4461 -3.6722 4.8978 -2.2036 2.0875 -4.8472 0.0833 -1.3332 2.6783 -1.6262 1.9042 -2.5643 0.9543 0.5755 0.8086 0.8530 3.0268 -3.7950 2.9963 -0.3000 -5.0983 -3.4655 -0.6145 -5.9132 -2.3053 0.7441 -4.2517 -3.4307 0.1269 -5.8106 -1.1868 1.5495 -4.1469 -2.2280 -3.2690 6.3515 -2.3290 0.5811 3.5690 -0.3798 2.3950 0.0633 2.3562 -3.5686 4.4168 -0.7694 -3.6621 2.9036 -0.6741 1.5216 -3.9410 1.1549 -0.5119 2.5138 -0.4293 1.6127 -0.1832 1.0739 0.9684 -1.5570 1.0880 0.1229 1.1375 -0.4142 1.9387 -4.4526 2.5130 1.2429 -4.8786 -1.1415
4.0065 1.1597 -1.1210 3.8915 -3.0477 4.8441 -2.2953 9.2376 -2.2766 -0.3798 8.2428 -1.0999 -3.8992 -0.4345 0.4225 -3.8889 0.3574 -1.9346 1.7173 -1.3888 -1.9209 -3.9299 6.1985 0.0321 -1.4338 4.2671 -1.7822 -0.3024 -1.9539 1.3378 -0.9413 1.1574 1.7156 2.2513 -4.8355 3.7954 2.5512 0.8857 -1.4054 -2.2205 3.6192 0.3409 -2.3603 6.8560 -1.6630 2.7829 -4.4409 0.7569 -2.9987 2.3900 0.3192 1.9912 -2.2192 1.3981 -0.1364 0.2309 -0.2524 3.4176 -2.8751 3.5090 0.3653 -6.4297 -2.1668 1.3310 -5.4167 -2.5518 0.2035 -6.7528 -0.8709 2.0729 -4.8053 -1.6112 1.0124 -6.0988 0.1431 -1.8823 8.2249 -1.2367 -3.0594 0.1227 -0.6994 2.1496 -0.4482 -0.8205 -2.5904 5.9380 -0.4785 -2.5105 4.4712 -0.8758 1.9922 -3.6150 1.7480 -2.2295 1.3384 -0.3346 1.1069 -0.2856 0.2741 0.8256 -1.5780 1.0267 -1.0533 0.9221 0.5170 2.5473 -3.8484 3.1308 1.8956 -5.1454 -0.2091
3.4406 1.1986 -1.6370 2.4956 -4.1594 4.8139 -1.0020 8.6093 -1.6985 -3.2225 8.2220 -2.6909 -3.2814 2.0490 3.5474 -4.6983 1.2012 1.7026 1.0843 -0.7383 -1.7150 -0.9809 4.7579 -2.7478 -3.3642 3.0245 -1.9600 -0.4128 -2.1915 1.6103 -0.3756 1.3875 2.6922 1.6095 -5.7186 2.8390 2.3010 1.1663 -0.6469 -1.6822 3.3631 -0.3050 -2.1105 6.4347 -1.3639 2.8730 -4.5221 0.3167 -2.1924 3.0963 1.0319 1.8425 -2.5132 1.2554 -0.3736 0.3298 0.6264 2.5451 -3.7105 3.4606 1.5595 -5.5136 -3.6377 1.1680 -6.3333 -2.5049 2.3321 -4.4292 -3.4495 1.5643 -6.0010 -1.2625 2.7635 -4.0725 -2.1104 -1.9059 7.5808 -2.3300 -3.3018 1.2410 2.2699 1.7721 -0.2382 -0.4645 -2.2238 5.1100 -2.0843 -2.7434 4.0222 -1.1624 1.7927 -3.9564 1.2136 -2.2759 1.6515 1.2242 0.9077 -0.3340 0.7824 0.6785 -1.7678 1.2357 -0.9096 1.1341 1.6162 1.9475 -4.5664 2.5886 2.3794 -4.8136 -1.0557
-0.1841 0.9014 5.2176 5.4168 -3.9640 -0.9718 -4.7086 6.9968 -3.0862 -2.4520 7.4839 -3.9364 -3.2137 1.5041 -2.3108 -0.8403 1.1946 -2.9466 0.8960 -1.5695 3.8128 -2.8073 6.9543 0.4179 -0.0002 6.1099 0.6636 -0.5843 -2.2575 0.5391 0.9264 1.7694 -0.1748 4.2692 -3.3167 1.3477 0.4275 0.8421 3.8383 -1.4278 4.2777 0.0871 -2.7478 6.1629 -1.8713 1.5626 -4.5889 1.2082 -1.1474 3.3707 -1.0122 1.7124 -2.1659 0.8905 -0.5891 0.4649 0.9960 4.0133 -3.7127 -0.9125 0.3466 -7.9812 -1.1029 1.7291 -7.8120 -0.6949 -0.5690 -7.0488 -0.7847 2.0918 -6.7332 0.0210 -0.1793 -5.8840 -0.0091 -3.2860 7.3090 -2.6914 -1.8338 1.1536 -1.8068 0.0930 -0.4673 3.1509 -1.9266 6.6475 -0.6964 -0.8724 5.6190 -0.3357 2.0664 -3.4530 0.3400 -1.4469 2.0060 -0.6087 0.4012 -0.3491 1.6665 0.4172 -1.6882 0.9597 -0.2263 1.4257 0.0716 3.5721 -3.4740 0.3540 1.1016 -5.7277 0.3706
3.7829 1.5006 1.5776 1.8988 -5.8418 4.1459 -4.1754 5.8938 -4.5551 -2.0967 6.9489 -3.7692 -3.8179 2.3525 3.1759 -4.6196 1.7507 0.9118 1.8767 0.2436 -0.4919 -3.6579 4.6135 -0.6681 -0.4268 3.5454 -2.0225 -0.6195 -2.4785 0.5294 -0.9008 1.0573 3.2376 1.3004 -6.4697 1.6388 2.3293 1.1496 1.7801 -0.8827 3.5703 0.2737 -2.7884 4.7396 -2.8831 2.9372 -4.3217 0.0833 -1.7643 3.2189 1.3729 1.4554 -2.9234 1.4461 -0.5057 0.1224 1.1509 2.0383 -4.8659 3.1135 2.6480 -2.8727 -3.9379 2.1211 -4.1789 -3.5844 3.2290 -2.1047 -2.9996 2.2125 -4.6238 -2.3178 3.3378 -2.5888 -1.6358 -3.2690 6.0897 -3.3632 -3.5204 1.5569 1.9251 1.9442 -0.0790 0.9845 -2.4111 4.7381 -1.4112 -1.5190 3.5395 -1.1046 1.6343 -4.2268 0.8512 -2.1539 1.8171 1.3139 0.6488 -0.6644 1.5228 0.4122 -2.0963 1.0762 -1.1204 0.9877 2.0329 1.6168 -5.3137 1.9000 2.8256 -3.7860 -1.2996
0.2307 -2.3761 5.6361 3.4162 -5.6009 2.9503 -2.1782 5.0762 -5.6233 -4.4628 5.1426 -4.7037 0.3393 4.5168 2.6217 -2.0217 4.0159 3.1973 1.8269 0.0484 4.7553 -2.7839 1.7430 -3.2675 -3.9304 2.2972 -0.4862 -0.2849 -1.8080 0.9962 1.2745 1.8011 0.6600 1.7791 -5.8895 0.8817 -0.0085 -1.5957 4.3649 -1.5765 2.5064 -0.7483 -2.6007 4.1788 -3.3640 2.6404 -3.5067 -0.9316 -0.9950 3.3407 0.2911 1.9642 -2.3399 1.1124 0.1653 0.5410 2.2613 3.1552 -4.4943 2.0880 0.5509 -1.7965 -4.2578 0.1410 -3.0773 -3.7106 1.5836 -1.1303 -3.7118 0.7921 -3.5997 -2.6552 2.2851 -1.6919 -2.5719 -3.1767 4.3556 -4.7520 -0.7046 3.4328 2.7503 1.2821 -1.0151 3.8283 -3.2045 2.9890 -2.6507 -2.9294 3.0465 -1.1588 1.8329 -3.5533 0.3464 -0.8641 2.5586 1.5178 1.1747 -0.4877 2.4057 0.8428 -1.6012 1.4364 0.3200 1.6206 1.4099 2.2267 -4.7761 1.1356 1.8980 -2.8711 -2.0532
0.4984 1.9403 4.2619 5.5370 -3.6542 0.9475 -4.8097 8.5798 -0.8770 -2.8183 8.6534 0.5728 -2.1179 -0.1587 -2.0468 -2.2189 1.6584 -3.6721 1.1660 -0.9589 3.4746 -3.4719 4.9317 -1.6919 -0.1690 6.4742 -1.7078 -0.5331 -2.0681 0.4490 1.5225 1.2470 -1.3033 3.7196 -4.9610 -0.4712 1.1113 1.4456 2.9739 -0.5227 4.2041 -1.1726 -2.8294 7.2283 -1.4524 1.3108 -4.5372 1.5881 -0.3077 3.1590 -2.1594 1.7672 -2.2910 0.6926 -0.0568 0.6561 0.2913 4.1585 -3.3043 1.0649 -0.4245 -8.1615 0.0913 0.9540 -8.1242 0.5440 -1.1873 -7.0562 0.1647 1.4705 -6.9825 1.0326 -0.6259 -5.8188 0.6794 -3.6628 7.7758 -0.3168 -1.3196 0.9644 -2.6727 0.5409 0.0960 2.5852 -2.4221 5.7970 -1.1722 -1.1143 5.4225 -1.8482 1.8888 -3.7105 0.4541 -0.7951 1.9041 -1.5954 0.8137 -0.1591 1.1109 0.5706 -1.6011 0.7088 0.3699 1.2484 -0.8818 3.3486 -4.0628 0.2770 0.6589 -5.7760 1.0770
2.9883 2.2525 0.0099 2.0052 -2.5963 4.6723 -1.1097 7.3591 -2.7329 -2.7075 5.4820 -2.8001 -3.9034 -0.0221 0.5113 -4.0370 1.6831 -1.2903 1.5192 -0.1781 -2.5561 -0.0352 4.9319 0.4277 -3.6035 5.2150 1.2273 -0.2270 -2.0224 -0.3852 -0.7911 0.7175 2.0190 1.2667 -4.7128 3.2134 2.4844 1.7098 -1.3051 -2.0843 3.5476 2.0910 -1.7413 6.2297 -0.6442 2.6527 -4.4208 0.5016 -2.8726 2.4773 1.5068 1.7821 -2.1453 0.7598 -0.1547 0.7407 -0.2096 2.3071 -2.6650 3.2788 1.3217 -6.4831 -3.0136 2.3781 -5.4895 -3.0737 0.7454 -6.7814 -1.8355 2.7602 -4.8444 -1.9571 1.1724 -6.0990 -0.6249 -1.4789 6.0325 -2.1184 -3.1165 0.9185 -0.3728 2.0484 0.2629 -1.2083 -1.4585 4.9574 0.1195 -2.2361 4.8987 1.4186 1.6224 -3.5235 1.1580 -2.1814 1.8495 0.3825 1.0785 -0.0048 -0.0659 0.7801 -1.4872 0.0701 -0.9798 1.0568 0.8553 1.6866 -3.7031 2.6573 2.1191 -5.1438 -0.6868
-0.7466 -1.9714 4.6949 3.9389 -1.3927 -2.8354 -1.9829 9.4499 -2.9890 -1.6660 9.0775 -0.5708 -3.4018 -0.6960 -0.7029 -4.1495 1.1503 -2.1124 0.6600 0.5146 3.4684 -3.0547 5.5582 -2.5124 0.1314 5.3405 -0.7124 -0.4800 -2.6926 0.3236 0.2388 0.8514 -1.1646 3.0736 -3.8857 -2.5505 -0.9555 -1.3723 3.3249 -1.6158 3.7509 -0.5527 -1.3625 7.2145 -2.1727 3.1151 -4.3517 0.4793 -1.8046 2.6333 -1.4611 1.8065 -2.3012 0.3875 -0.7708 0.0685 0.7701 3.4010 -1.8234 -1.5864 1.0658 -7.0915 3.0527 1.2314 -5.6986 3.4243 1.5243 -7.5324 1.8674 1.8628 -4.8524 2.5923 2.2039 -6.6177 0.9655 -2.1506 8.4638 -1.8605 -2.9253 0.4760 -1.5310 0.3412 -0.8007 2.7965 -2.0281 5.9942 -1.5738 -1.0272 4.8700 -1.3831 2.2000 -3.4756 -0.3524 -2.0746 1.4246 -0.6941 0.3730 -0.6425 1.2891 0.4817 -1.9894 0.6141 -0.7324 0.7722 -0.4180 2.9228 -3.0964 -1.6237 2.3568 -5.3260 1.3091
4.0545 0.1078 -1.0833 -0.1235 -4.2006 4.1292 -2.7829 6.9331 -4.3414 -0.5772 6.2266 -3.5115 -3.7717 1.0884 3.7083 -4.9615 1.0878 1.5378 1.8570 1.9478 0.1401 -2.8489 6.3705 -0.1067 -2.0184 3.0281 -1.3330 -0.4550 -1.9853 -0.4028 -0.7694 0.7337 3.0051 0.9533 -5.7716 2.2728 3.1364 -0.1364 0.0894 -1.6452 3.7085 0.8890 -2.6534 5.5158 -2.3398 2.6637 -4.5071 0.4098 -2.4342 2.9865 1.8784 1.3901 -2.4944 0.9056 -0.5470 0.4833 0.7091 0.1645 -3.6874 2.8303 3.7447 -4.4702 -3.7327 2.6451 -5.2959 -3.2664 4.4219 -3.6979 -2.8650 2.2963 -5.2843 -1.9669 4.0466 -3.6856 -1.4630 -1.9738 6.6287 -3.1037 -3.6426 0.8345 2.2238 1.7642 0.4628 -0.1539 -2.1464 5.3842 -0.9154 -2.4394 3.9918 -0.3719 1.3013 -3.9295 0.7490 -2.5013 1.5685 1.5387 0.7301 -0.2026 0.7474 0.4692 -1.6382 0.3268 -1.1843 0.9026 1.8627 0.8257 -4.5746 2.0371 3.0115 -4.4294 -1.0330
3.0573 0.6751 -3.2142 4.1856 -2.4951 4.2211 0.8741 7.5828 -0.8612 -0.7532 8.3741 0.8089 -3.7766 0.4758 1.6702 -4.6427 0.1325 -0.6279 1.0391 -1.5314 -2.3706 -2.6988 6.4141 -2.3877 -4.7709 5.2293 -0.6705 -0.3270 -1.7429 1.2029 -0.6006 1.9503 1.0319 2.6122 -4.4459 3.3854 1.8709 0.8138 -2.2917 -2.9142 3.7479 -0.9643 -1.1950 6.2968 -0.4737 2.8259 -4.1461 0.2879 -3.0289 2.7814 0.1164 1.9557 -1.9550 0.9266 -0.5032 0.2827 -0.5724 3.6041 -2.4252 2.9196 0.8406 -7.7465 -0.9287 1.0458 -6.6504 -1.8585 1.2579 -7.6351 0.3447 1.6497 -5.5204 -1.4481 1.9322 -6.4255 0.7805 -0.5930 7.6834 -0.5226 -3.4071 0.3449 0.2106 1.6485 -0.4556 -1.4989 -2.6339 6.2936 -0.9419 -3.3828 5.0828 -0.4196 2.0771 -3.3352 1.3254 -2.5522 1.4801 -0.3328 0.8307 -0.1783 -0.2477 0.7236 -1.3823 0.6771 -1.1235 1.2954 0.1350 2.7733 -3.4697 2.6601 2.0993 -5.3964 -0.0713
1.5016 0.4860 -3.6690 4.3766 -1.6881 3.8507 1.1707 6.8280 -1.5100 0.9258 4.3956 -1.2162 -3.2139 1.3941 3.0389 -4.9339 0.1970 1.7183 -0.2136 -1.6342 -2.1783 -2.0988 6.2138 1.0302 -3.7347 5.5334 -1.6923 -0.2075 -1.7438 1.6883 -0.8359 2.2830 0.6772 3.1596 -3.9561 3.2423 0.6648 0.6827 -2.4286 -3.3797 3.3502 -0.7879 -1.0677 5.8678 -1.1422 3.1380 -3.8249 0.1448 -3.5838 2.7086 0.5002 1.8837 -1.8067 0.7038 -1.1200 0.0973 -0.0321 3.6716 -1.8033 2.6151 0.9795 -6.6729 -2.2196 1.1853 -6.8976 -0.8001 1.4436 -5.5521 -2.8006 1.8565 -5.9915 -0.0659 2.1654 -4.5728 -2.0073 0.3983 5.7454 -0.7976 -3.4860 0.6175 1.7701 0.6697 -0.5650 -1.5727 -1.9416 5.2712 -0.0626 -3.3161 4.8396 -0.5332 2.2861 -3.1092 1.1733 -3.0716 1.3441 0.4994 0.2851 -0.2287 -0.1414 0.5844 -1.3559 0.8326 -1.5604 1.3330 0.4001 3.0713 -3.0145 2.4612 2.3477 -4.7709 -0.6888
0.7790 -2.3335 5.3743 1.0929 -5.2959 3.2306 -2.7441 3.6609 -5.6086 -3.8230 5.7348 -4.8338 1.3704 4.5907 2.0198 -0.5718 4.6735 3.5599 1.9206 0.3423 4.4899 -4.4205 2.9663 -1.8859 -3.7836 5.2429 0.1543 -0.4431 -1.4911 0.8715 0.6428 1.6968 0.0765 0.4512 -5.4586 0.6628 0.3194 -1.5400 4.1737 -2.2745 3.4027 0.0112 -2.7593 4.1895 -3.1980 2.7553 -3.8087 -0.6671 -0.9811 3.8338 0.5180 1.7742 -2.1509 0.8401 0.1652 0.8048 2.1586 1.6574 -4.3779 2.2949 1.9675 -4.6166 -4.8041 1.5271 -5.5382 -3.7728 2.6082 -3.4839 -4.4647 1.7625 -5.2613 -2.4776 2.8599 -3.1836 -3.0658 -3.5375 4.2931 -4.4921 0.2549 3.7938 2.6556 1.4666 -0.7646 3.5636 -3.6701 4.2039 -1.9902 -2.9066 4.5636 -0.7299 1.5391 -3.3854 0.1286 -0.6125 3.0205 1.6738 1.1763 -0.2365 2.1659 0.7222 -1.3433 1.2310 0.1439 1.7975 1.1943 1.1332 -4.5149 1.0480 2.4379 -4.0267 -2.1062
0.1769 0.2371 -3.5618 2.9308 -3.1101 4.6306 -0.9706 8.2970 -3.3086 -3.1112 7.1255 -3.6399 -3.6320 2.1778 3.7624 -2.2386 0.1727 3.9133 -1.0683 -1.7617 -1.6666 -0.2473 4.7366 -1.5229 -3.4590 5.3638 0.1348 -0.4739 -2.5370 1.4893 0.4564 1.4041 2.1435 3.0406 -5.0929 2.8886 0.0527 0.4325 -2.0697 -2.2158 3.3640 0.2709 -1.7020 6.6356 -1.6624 3.1207 -4.2767 0.1379 -1.7744 3.1596 1.6422 1.7544 -2.4038 0.8668 -0.8188 0.0526 0.7473 2.3445 -2.9509 3.3391 1.6440 -5.6445 -3.6406 2.5193 -4.4909 -3.5476 1.2562 -6.2909 -2.5262 2.9500 -4.0687 -2.3452 1.7389 -5.8503 -1.2294 -1.6960 6.9839 -3.1322 -2.2600 1.6154 3.4582 0.1198 -0.8876 -1.3328 -1.6429 5.1410 -1.4172 -2.1441 4.8460 -0.0153 2.0681 -3.7891 1.1141 -1.9359 1.7502 1.9775 0.2905 -0.6631 0.1590 0.4444 -1.9680 0.9061 -0.6191 1.0804 1.6494 2.5655 -4.0208 2.5265 2.5361 -4.7687 -1.1392
2.2875 0.3318 3.2358 3.7475 -2.9494 4.0464 -3.1837 7.9062 0.4686 -1.8288 6.8171 -1.2751 -0.9731 2.0975 -4.5402 -0.7907 4.2986 -3.4258 3.7632 1.7759 0.2233 -2.0870 4.0893 1.7650 -4.3343 3.1664 -0.8828 -0.0379 -1.0115 0.7674 0.2686 0.0806 -2.5392 1.5234 -4.2002 3.3494 2.2089 1.3305 2.1060 -2.3822 1.8099 -0.4299 -3.2981 5.4586 0.1983 1.9776 -4.5264 0.2656 -2.0619 1.8466 -1.8481 1.9886 -2.1046 0.5026 0.8968 1.1685 -0.5859 3.2941 -2.8880 2.6939 -1.2987 -7.1075 -0.7069 -0.7452 -7.0847 0.6346 -0.8050 -6.2904 -1.6541 0.2715 -6.2548 0.9277 0.2897 -5.3900 -1.3368 -2.3966 6.6694 0.1146 -0.3769 2.8497 -3.3721 2.8506 0.7575 0.8636 -2.4979 4.1844 0.3711 -3.2870 2.9331 0.0385 1.5683 -3.3406 1.1098 -0.6697 2.2442 -2.0112 1.8638 0.1905 -0.1415 1.1413 -1.0156 0.4263 0.2075 1.0398 -1.7765 2.1035 -3.5178 2.5112 0.8021 -5.3647 -0.0933
-2.2695 -1.9206 -2.8044 5.0340 -1.2993 2.8920 1.1181 6.0579 -1.5477 -0.5649 7.8371 -1.3529 -0.0291 3.5873 2.5813 -2.0450 2.8507 3.8187 -1.7972 -2.5385 0.2111 -2.3655 4.3503 -2.9570 -4.8574 4.6586 -1.4128 0.6428 -1.6175 2.1986 -0.3555 2.0522 -0.5290 4.6867 -3.7485 1.9909 -1.7858 -0.9806 -1.7282 -3.2356 3.3062 -0.2841 -1.2262 5.4705 -1.1319 3.0583 -4.0730 -0.3478 -2.3078 3.5023 0.8159 1.9828 -2.0165 0.3518 -0.7640 0.2091 0.8124 3.9944 -1.5619 1.9490 0.2583 -7.1265 -1.4348 0.9972 -7.2087 -0.1885 0.4073 -6.0582 -2.2385 1.8659 -6.2365 0.1453 1.3443 -5.0078 -1.8784 -0.3144 6.4340 -1.8480 -1.0979 2.5218 2.6906 -0.9314 -1.7143 -0.7170 -2.5531 5.2396 -1.8234 -3.5648 4.6819 -0.8340 2.6457 -3.2066 0.8309 -1.8412 2.2486 1.3890 -0.0192 -0.7550 0.0307 0.8760 -1.5032 0.9986 -0.9076 1.5302 0.4340 3.8887 -2.8839 1.6413 2.0327 -5.0810 -0.7238
4.6480 0.2146 -1.0638 1.1014 -3.9756 5.2855 -4.8540 8.5780 -2.6740 -2.9621 9.2499 -1.2495 -3.4073 0.9903 1.2788 -3.6482 1.2040 -1.1808 2.0202 -1.3132 -1.7077 -3.8958 5.2963 -0.4455 -0.6282 5.7524 -2.0458 -0.5198 -2.0124 1.1614 -0.0276 1.7238 1.8056 0.4136 -5.5606 3.2760 3.2588 0.5226 -0.5610 -0.9644 4.2381 -0.2898 -3.1577 6.9079 -2.0428 2.5852 -4.9341 1.1681 -1.8108 3.2456 0.3473 1.6526 -2.7072 1.5292 0.2666 0.3006 -0.0008 1.5395 -3.6759 3.9617 2.3039 -6.4532 -2.8253 3.3204 -5.4845 -2.4569 1.4151 -6.8801 -1.9106 3.3733 -5.0105 -1.1992 1.4851 -6.3835 -0.5469 -3.9175 8.1293 -1.5777 -2.6817 0.9725 -0.0466 2.4588 -0.7467 -0.3754 -2.7112 6.0161 -0.8956 -1.6623 5.0217 -1.3881 1.3900 -4.1221 1.6225 -1.4845 1.9071 -0.1294 1.3049 -0.5208 0.5867 0.6912 -1.8214 1.0808 -0.3458 1.3319 0.6874 1.0409 -4.5358 3.0323 2.4094 -5.4650 -0.2099
0.3491 -1.3468 4.4893 3.0031 -1.8783 -3.7625 -0.6184 9.2468 -1.9083 0.8999 7.3390 -1.5919 -3.8301 -1.2681 -0.4979 -5.1575 0.4706 -1.5850 0.5862 1.1537 2.6272 -3.0053 6.4085 0.0150 -1.5008 4.3404 -2.5861 -0.4494 -2.7448 0.2722 -0.6962 0.8441 -1.6234 3.1126 -4.2517 -2.5809 -0.3310 -1.0950 3.1651 -2.4448 3.4329 -0.5918 -1.5451 6.9735 -1.7935 3.3360 -3.9701 0.3627 -3.0292 2.3252 -1.3341 1.7746 -2.1354 0.0119 -1.1054 -0.0800 0.4654 2.8221 -1.9865 -2.3505 1.9735 -6.1313 3.8000 2.3752 -4.7401 3.8984 2.0054 -6.7596 2.6111 2.7883 -4.0804 2.8018 2.4578 -6.0494 1.4267 -0.4666 7.8897 -1.2647 -3.7442 0.0050 -1.3098 0.5792 -0.3099 2.2461 -1.9137 5.8893 -0.7975 -2.3932 4.6385 -1.5174 2.2323 -3.4017 -0.5098 -2.8954 1.0646 -0.6094 0.2486 -0.4777 0.7738 0.4494 -1.9114 0.3313 -1.4416 0.6275 -0.6731 2.7612 -3.2766 -1.9243 2.8133 -4.7546 1.5136
2.7278 -0.6049 4.5747 0.3216 -2.2243 -3.3475 -2.3411 9.2467 -3.5662 -1.1635 9.2268 -1.3996 -3.8233 -0.1507 0.7744 -4.7744 1.5956 -0.6418 -0.2288 -0.9731 3.8850 -3.5033 5.7155 -1.9391 0.0880 5.2704 -1.3396 -0.8181 -2.4100 1.0819 -0.4016 0.7596 -1.0059 0.7266 -4.5811 -2.1933 2.1724 -0.9736 3.2213 -1.6302 3.9826 -0.3342 -1.6608 7.1035 -2.5710 2.9491 -4.0547 -0.1508 -2.2183 2.7965 -0.9314 1.4134 -2.2780 0.4601 -0.7446 0.4173 1.2610 0.9962 -2.3004 -2.0937 3.6639 -7.6575 2.0539 3.2014 -7.7064 0.6787 3.8372 -6.4714 2.6635 2.9542 -6.5657 0.0095 3.5803 -5.2390 1.9389 -2.1560 8.4978 -2.2704 -3.5046 0.8324 -0.3284 0.8164 -0.3431 2.9897 -2.1614 6.1177 -1.5366 -1.2705 4.8902 -1.4916 1.5075 -3.5854 -0.1481 -2.3449 1.7421 0.0680 0.4382 -0.3782 1.5181 0.2395 -1.7936 1.0066 -1.0544 0.9384 0.0187 1.0185 -3.5598 -1.5803 3.1473 -5.2822 0.6658
1.9810 0.0136 4.5355 0.1941 -5.3086 -2.8871 -0.9625 9.3451 -1.5583 -0.7320 8.2596 -3.7519 -5.0366 0.9092 1.2855 -4.2685 0.0554 -0.9106 1.7411 1.8449 1.9705 -2.4743 6.8296 0.3236 -2.2923 4.4643 -2.4579 -0.2852 -2.3216 1.5741 -1.0375 0.9842 -1.1263 1.3812 -2.9648 -2.4728 0.8616 0.1185 3.5274 -2.2861 3.8430 -0.1551 -2.1248 7.2164 -2.0045 3.1872 -3.8512 -0.0410 -3.1270 2.6830 -0.4081 1.5308 -2.0908 0.1469 -0.8171 0.3678 1.1000 0.5951 -4.9381 -1.5694 3.9457 -7.8025 1.4269 3.6418 -6.7158 2.3404 3.9632 -7.5823 0.1003 3.3829 -5.4854 1.8626 3.6940 -6.2521 -0.4160 -0.8706 8.0162 -2.2689 -3.8360 0.5007 0.4684 1.4228 0.3786 2.1475 -1.9153 6.2236 -0.8772 -2.6497 4.9240 -1.1592 1.7168 -3.4969 -0.1247 -2.7639 1.5803 0.4714 0.5408 -0.1149 1.0169 0.5205 -1.6251 0.9651 -1.4512 0.9703 0.0289 1.2285 -3.7316 -1.5316 3.4016 -5.2463 0.4288
3.2722 0.3628 4.2208 0.0412 -2.8796 -3.0825 -2.9321 9.4253 -3.1916 -1.7105 9.4786 -1.0567 -4.4549 1.1786 -0.2253 -2.9382 0.2111 -1.9248 0.3486 -0.7095 4.0270 -3.6094 5.6794 -2.0387 -0.1259 5.6899 -0.8867 -0.7331 -2.2424 1.5248 0.1977 1.1720 -0.8734 0.1324 -4.9149 -1.3929 2.6231 -0.3758 3.0771 -1.7527 4.0721 -0.3289 -1.9294 7.3577 -2.3073 2.8335 -4.2022 0.1060 -1.9703 2.8384 -1.0637 1.4212 -2.3176 0.6602 -0.4926 0.5454 1.2506 0.7623 -2.7511 -1.8583 3.2982 -8.2676 1.3710 2.9506 -7.9473 -0.0016 3.4985 -7.2813 2.2630 2.7993 -6.6645 -0.3747 3.3291 -5.8948 1.8627 -2.6142 8.6518 -1.9362 -3.0524 0.6902 -0.4964 1.1621 -0.0089 2.9624 -2.4057 6.2235 -1.4243 -1.3543 5.1327 -1.3315 1.4114 -3.6960 0.2363 -2.0292 1.7427 -0.1093 0.6623 -0.2595 1.5551 0.3400 -1.7090 1.2639 -0.6523 1.1357 0.0116 0.6920 -3.8675 -1.0847 2.9816 -5.5983 0.5973
5.1680 1.6979 0.5518 1.7405 -3.2140 5.3913 -3.5679 9.3271 -0.7910 -2.3532 8.2805 1.0745 -1.7619 -0.4683 -2.6701 -0.8263 1.3572 -4.0749 3.6869 -0.2742 -1.1397 -4.6004 5.3591 -1.0099 -0.9735 4.9630 -1.1128 0.9069 -2.0397 -0.6392 -0.9689 0.9410 0.7400 0.5372 -4.8755 3.7018 3.6666 1.5371 0.5778 -2.4156 3.2190 -0.4849 -2.8373 6.9875 -0.9880 1.9822 -4.5704 1.0282 -2.3134 2.0869 -1.3928 1.6297 -2.2000 1.5592 0.9774 0.7077 -0.4872 2.0373 -3.1662 3.9953 -0.3167 -7.2823 -1.3736 0.5741 -6.3105 -1.9816 -0.4375 -7.3379 -0.0356 1.2681 -5.4546 -1.2096 0.3282 -6.4283 0.7977 -3.3504 8.0402 -0.0323 -0.7896 0.6862 -2.7257 3.2464 0.1182 0.2559 -3.2306 5.5834 -0.5675 -2.3291 4.5411 -1.2186 1.1634 -3.5484 1.7980 -0.9194 1.6810 -1.5802 1.7487 -0.0599 0.4747 1.3676 -1.5275 0.3774 -0.3458 1.0711 -0.3091 1.1813 -3.9271 3.2641 1.1266 -5.5006 0.2370
0.4680 -1.9954 4.6383 1.1259 -1.5564 -3.9731 0.0111 7.7839 -3.3378 -1.6211 6.0291 -3.9041 -3.7610 -0.7348 -0.2815 -5.0361 1.2290 -0.9654 0.9379 0.7632 3.2013 0.1361 5.3068 -0.0448 -3.4808 5.7379 -0.2384 -0.7867 -2.5280 0.3727 -0.5149 1.4980 -0.7843 1.6773 -3.9975 -3.0953 -0.2738 -1.3940 3.4686 -2.4860 3.8070 0.7577 -1.2051 6.6297 -1.5336 3.1188 -3.8308 -0.5043 -2.8164 2.9230 -0.3489 1.4626 -2.1170 -0.0282 -1.0647 0.1486 1.0198 1.3845 -1.7754 -2.5869 3.4751 -6.3106 2.9667 3.7867 -4.8942 3.0204 3.0402 -6.8622 1.8196 3.6456 -4.1326 1.9212 2.8968 -6.0422 0.6284 -0.5824 6.4673 -2.9013 -3.6346 0.6771 -0.8089 0.6762 -0.5992 2.6017 -1.1391 5.3376 -0.7460 -2.2595 5.2304 0.2769 1.7208 -3.3166 -0.7886 -2.7749 1.5385 0.1096 0.2295 -0.4738 1.1587 0.2099 -1.8195 0.4716 -1.3283 1.0824 0.0356 1.5946 -3.0840 -2.2804 3.1678 -4.7254 0.6826
0.8547 -0.6911 5.0684 1.0960 -4.9744 -3.2130 -3.8942 9.1166 -2.0880 -1.5661 9.8891 -2.2602 -4.5134 1.5569 -0.0433 -3.2369 0.4056 -1.8317 1.6770 1.3660 2.8415 -3.6592 5.8468 -1.6111 0.0019 5.7125 -1.4397 -0.5360 -2.3931 1.2132 0.0790 1.1653 -1.0956 2.3150 -2.8703 -2.1206 0.1493 -0.3594 3.7751 -1.4888 4.1615 -0.4569 -2.0610 7.4735 -2.3148 3.1014 -4.2508 0.6109 -1.9696 2.9607 -1.1187 1.6744 -2.2925 0.5080 -0.5695 0.3844 0.9884 1.0973 -4.8057 -1.7970 2.9040 -8.3915 1.6838 2.4209 -7.3647 2.5895 3.3813 -8.0520 0.4732 2.4619 -6.0706 2.2250 3.4395 -6.6540 0.0846 -2.4633 8.8036 -1.7206 -3.1894 0.9380 -0.4183 1.1637 -0.0479 2.6991 -2.3184 6.3486 -1.3339 -1.3255 5.2175 -1.5284 1.7922 -3.6752 0.1129 -2.0326 1.8833 -0.1434 0.6661 -0.2940 1.2899 0.5002 -1.7685 1.0120 -0.7236 1.1260 -0.1676 1.7835 -3.6987 -1.3941 2.9883 -5.7015 0.9213
2.8689 0.4658 3.9756 -1.0346 -5.4046 -1.6356 -1.4127 9.2474 -2.7096 0.1168 7.3248 -2.8424 -4.8370 0.6312 1.6387 -4.2063 0.0240 -0.6757 2.2336 2.0240 1.3404 -2.8606 6.9512 0.3591 -2.4957 4.3618 -2.1565 -0.1330 -2.0030 1.6524 -1.1766 1.0051 -1.1062 0.5548 -3.3413 -2.2436 1.5863 0.4801 3.1788 -2.3731 3.8488 0.1678 -2.1670 7.0462 -1.9248 2.9895 -3.9419 -0.5326 -3.2123 2.6733 -0.0082 1.5683 -2.0622 0.0754 -0.5035 0.6685 1.0910 -0.2542 -4.7722 -0.6231 4.2519 -7.7656 0.9307 3.4186 -7.6575 -0.2529 4.6091 -6.6587 1.6060 3.0135 -6.4490 -0.6820 4.1754 -5.3524 1.1402 -0.9788 7.9712 -2.0305 -3.6830 0.3751 0.7004 1.8874 0.5974 1.7008 -2.1239 6.2132 -0.6583 -2.8090 4.8725 -0.8658 1.6165 -3.5015 -0.0666 -2.6870 1.5256 0.7170 0.7822 0.0716 0.8023 0.6661 -1.4337 0.9149 -1.3861 1.0594 0.1011 0.6042 -3.8434 -1.1293 3.3914 -5.2508 0.0512
2.1780 -0.0675 4.8275 -1.2278 -4.7185 -1.9312 -3.2903 9.3862 -2.9581 -1.4412 9.4041 -1.3263 -4.4370 1.3123 0.6544 -3.3719 0.2348 -1.3052 2.4392 1.6246 2.1806 -3.8184 5.7614 -1.4111 -0.1627 5.4981 -1.5037 -0.1885 -2.1811 1.8035 -0.0847 1.1130 -1.0912 0.9823 -3.2289 -2.1676 1.1690 0.1527 3.7254 -1.6014 4.0803 -0.2781 -2.2071 7.2733 -2.3170 2.9598 -4.2812 -0.1403 -2.1820 2.8553 -0.8000 1.6806 -2.3009 0.4307 -0.2513 0.5330 1.1475 -0.2560 -4.7009 -0.8876 3.4722 -8.3761 0.9945 2.8781 -8.0257 -0.2825 3.8287 -7.4098 1.8593 2.6987 -6.7337 -0.6098 3.6398 -6.0137 1.5055 -2.6388 8.6342 -1.8243 -3.1450 0.7728 0.0890 1.8724 0.2396 2.3908 -2.4441 6.2205 -1.2554 -1.5056 5.0430 -1.4415 1.5841 -3.7099 0.1334 -2.0275 1.7971 0.1862 1.0096 -0.1645 1.2127 0.7406 -1.6489 1.2048 -0.6881 1.1257 -0.0222 0.7519 -3.8132 -1.1176 3.0843 -5.6877 0.3246
1.8207 -0.2061 4.2860 -0.2219 -4.8264 -3.2875 -0.5721 7.6047 -3.7958 -0.5667 8.2962 -1.4301 -5.5092 0.6860 0.9505 -4.5599 0.2630 -1.2959 1.4906 1.7034 1.8572 -2.9692 4.8005 -2.2801 -0.4426 4.5980 0.3702 -0.6163 -2.4222 0.9569 -1.4598 1.0005 -1.1877 1.4917 -2.8306 -2.8818 0.6776 -0.1580 3.3002 -2.6258 3.7192 0.5836 -0.8843 5.9234 -2.0376 3.1429 -3.6554 -0.4837 -3.4342 2.7021 -0.0691 1.3752 -2.0162 -0.1662 -1.1106 0.2849 0.9925 0.3088 -4.5992 -1.9834 4.5387 -6.0811 2.7574 3.7380 -4.8973 3.0086 4.8018 -6.4594 1.4939 3.2649 -4.1742 1.9786 4.2910 -5.6770 0.3806 -1.1729 7.3498 -2.4359 -4.2464 0.3911 0.1780 1.1791 0.2264 1.9267 -2.0467 5.3213 -1.2779 -1.5645 4.1814 -0.3950 1.6525 -3.3873 -0.5252 -3.1520 1.3937 0.5013 0.2462 -0.1642 0.7983 0.2585 -1.6568 0.5645 -1.8260 0.8916 -0.0215 1.1650 -3.5406 -1.9403 3.5380 -4.5852 0.6098
2.0960 -0.1339 4.3507 -0.7518 -3.3720 -3.0911 -1.2792 9.4298 -2.5349 0.2787 7.5414 -2.7564 -3.6039 -0.6526 1.4217 -5.2203 0.9591 0.5637 2.0400 1.7308 1.6936 -2.7559 6.7567 0.2996 -1.9531 4.3894 -2.3749 -0.3423 -2.2600 1.5715 -1.0633 0.8945 -1.2049 0.4252 -5.2196 -1.6128 1.0043 0.2273 3.3741 -2.3625 3.7889 -0.1053 -2.0322 7.1595 -1.9441 2.9585 -3.9691 -0.4959 -3.1097 2.5917 -0.4635 1.4197 -2.1925 0.0586 -0.7090 0.4444 1.0419 0.1908 -2.9857 -2.0915 4.3701 -7.4707 1.5273 3.6775 -7.5704 0.2558 4.5780 -6.2660 2.0883 3.2287 -6.4590 -0.3536 4.0908 -5.0648 1.4312 -0.8558 8.1089 -1.9388 -3.8243 0.4087 0.3659 1.5693 0.3232 1.9751 -1.9725 6.1817 -0.7850 -2.5777 4.8428 -1.1790 1.5160 -3.6099 -0.1964 -2.7556 1.4960 0.4348 0.6044 -0.1343 0.8994 0.4798 -1.6398 0.9055 -1.4297 0.9237 -0.0342 0.6522 -4.0394 -1.3661 3.4187 -5.1588 0.2694
1.7343 -1.0305 4.0914 -0.9432 -3.0902 -2.6736 -2.0279 9.5323 -2.7210 -0.0018 8.1710 -2.3828 -4.7300 0.7628 1.1139 -3.6924 -0.0854 -0.9675 2.4526 1.7071 1.7081 -3.2235 6.7639 0.0994 -1.6083 4.5042 -2.2744 -0.1807 -2.1486 1.6942 -0.6669 1.1435 -1.0986 0.0343 -5.0876 -1.2410 1.4038 0.2954 3.4492 -2.1499 3.9059 -0.0369 -2.2478 7.1856 -2.0408 2.8785 -4.2007 -0.4825 -2.8735 2.6830 -0.3511 1.6248 -2.2432 0.2441 -0.3851 0.5626 1.1314 0.1978 -2.8776 -1.8449 4.0484 -7.9018 1.3433 3.1915 -7.8884 0.1720 4.4564 -6.7426 1.8898 2.8163 -6.7177 -0.3752 4.0537 -5.4783 1.2980 -1.4071 8.4303 -1.8984 -3.4265 0.4262 0.4314 1.9104 0.3339 2.0251 -2.1710 6.3154 -0.8018 -2.4323 4.8684 -1.1743 1.5377 -3.6601 -0.0254 -2.4389 1.5827 0.4983 0.8931 -0.0959 0.9831 0.6909 -1.5943 1.0311 -1.0749 1.0951 0.0577 0.5016 -3.9643 -1.0860 3.2558 -5.4621 0.2147
0.2717 -0.8310 4.8468 1.6482 -2.7970 -3.5376 -2.8015 9.7923 -2.4995 -2.0783 9.2816 -0.1972 -3.0379 -0.5654 -0.9159 -3.9848 1.3021 -2.1658 1.3791 1.1794 2.8076 -3.4364 5.7824 -2.2355 -0.0401 5.7624 -0.8597 -0.6426 -2.4382 0.6712 0.4655 1.2329 -1.2837 1.6177 -5.0290 -2.0997 -0.2107 -0.6326 3.4297 -1.6038 4.0027 -0.6160 -1.8723 7.5744 -1.9782 3.0440 -4.4669 0.4994 -1.6745 2.8970 -1.5554 1.6646 -2.4767 0.4376 -0.5099 0.3344 0.6175 1.8679 -2.7436 -2.1293 2.4954 -7.8424 3.0740 2.1055 -6.5111 3.5012 2.9802 -8.0373 1.8346 2.2494 -5.4671 2.6658 3.1416 -6.9091 0.9337 -2.7050 8.7164 -1.4473 -2.6873 0.6910 -1.6810 0.9386 -0.2397 2.5279 -2.3401 6.2559 -1.4000 -1.2270 5.2254 -1.4232 1.7623 -3.8442 -0.0139 -1.8815 1.6558 -0.8192 0.6422 -0.4196 1.0516 0.4486 -1.8786 0.7050 -0.5066 1.0701 -0.5520 1.7340 -3.9529 -1.5224 2.7836 -5.6737 1.3290
1.4505 1.1199 4.5843 -0.2519 -2.5198 -3.4587 -1.2768 9.3478 -2.6086 0.5390 7.8304 -1.9404 -4.9949 0.6505 0.5791 -3.7658 -0.2255 -1.3834 2.7676 -0.5931 2.3482 -3.1954 6.5773 -0.1624 -1.2539 4.3076 -2.2732 -0.6694 -2.4223 1.2487 -0.6666 0.8629 -1.1050 0.6182 -4.7782 -2.3685 1.2298 1.1663 3.0910 -2.2182 3.6835 -0.1960 -1.7988 7.0169 -2.0525 2.8039 -4.1964 -0.4398 -2.8948 2.4831 -0.6609 1.3845 -2.3394 0.1653 -0.6890 0.3207 1.1517 0.5083 -2.4868 -2.2519 3.8044 -7.2305 2.4093 3.1269 -7.5675 1.1704 4.0882 -5.9471 2.6941 2.7898 -6.5977 0.3011 3.7327 -4.9007 1.7516 -0.9094 8.1888 -1.7147 -3.6381 0.2560 0.0454 1.3046 -0.2297 2.5130 -2.0089 6.1024 -0.8620 -2.2576 4.6813 -1.3363 1.3807 -3.6786 -0.3698 -2.6216 1.3711 0.2382 0.5918 -0.3503 1.1747 0.3305 -1.8124 0.8855 -1.2248 0.8430 -0.0121 0.7937 -3.7244 -1.7657 3.0908 -5.2093 0.6100
-1.5627 -1.5166 3.9492 5.3218 -2.6046 -1.2232 -4.9102 8.4244 -1.2561 -3.1378 8.5464 0.4569 -2.3871 1.4696 -3.2832 -0.0687 0.6576 -3.6345 0.3721 0.7880 3.2474 -3.2936 4.8520 -1.8093 -0.0743 6.5647 -1.5406 0.0684 -2.1758 -0.4275 1.6384 1.4916 -0.9032 3.7859 -4.7676 -1.1347 -1.2530 -0.9734 2.5740 -0.3844 4.2721 -1.0905 -2.8016 7.1815 -1.5834 2.4254 -4.7211 1.5796 -0.1454 3.2244 -2.0682 1.9578 -2.4280 0.8874 -0.0963 0.4790 0.2541 4.2853 -2.7056 -0.2500 -0.8740 -7.3821 2.1824 0.1837 -7.7185 1.2456 -0.8367 -6.2181 2.8548 1.1963 -6.8572 1.0340 0.2618 -5.2948 2.6372 -3.8084 7.6605 -0.5637 -1.1196 1.0093 -2.6091 0.1874 -0.5123 2.4963 -2.3351 5.7858 -1.2380 -0.9579 5.4809 -1.7964 2.2565 -3.7620 0.4199 -0.6522 1.9680 -1.5274 0.7196 -0.3869 1.0783 0.8540 -1.7433 0.4119 0.4400 1.3149 -0.7059 3.5078 -3.8074 -0.4243 1.2365 -5.5955 1.7601
0.7959 -0.9684 4.8830 0.6503 -2.8268 -3.4858 -2.8715 9.5360 -2.9586 -1.7409 9.4985 -0.7668 -3.2280 -0.5076 -0.3313 -4.2673 1.3336 -1.5488 1.6478 1.2027 2.7806 -3.4950 5.7379 -2.0705 -0.0428 5.7113 -0.8167 -0.6462 -2.3963 0.9219 0.2521 1.1769 -1.2355 1.1889 -5.0357 -2.1138 0.1252 -0.5946 3.5825 -1.6595 4.0265 -0.4286 -1.8347 7.4536 -2.1544 3.0033 -4.4271 0.1675 -1.8707 2.8811 -1.2976 1.6091 -2.4591 0.3804 -0.4823 0.3763 0.8119 1.1589 -2.7382 -2.1553 3.1005 -7.8222 2.7737 3.2065 -7.9812 1.3346 2.9222 -6.5995 3.3048 3.1341 -6.9050 0.5305 2.8651 -5.4351 2.4389 -2.5755 8.7016 -1.7375 -2.9386 0.7008 -1.1933 1.1633 -0.2108 2.5520 -2.3236 6.2526 -1.3724 -1.2545 5.1753 -1.3277 1.6341 -3.8275 -0.0812 -2.0046 1.6770 -0.4866 0.6995 -0.3920 1.1204 0.4459 -1.8490 0.8088 -0.6189 1.0659 -0.3775 1.3052 -3.9496 -1.5554 2.9466 -5.5817 1.1037
2.4775 1.7122 4.6679 1.5190 -6.0117 3.8805 -6.1673 4.8421 -0.1490 -4.0253 6.0581 -0.0648 2.2263 4.5860 -0.8573 0.0412 5.1634 0.1724 3.3635 -0.7039 3.0354 -3.3868 1.9471 -0.7684 -2.1101 4.2157 -3.3637 -0.3792 -1.1532 1.0620 1.9499 1.1229 -1.3311 0.6578 -3.5387 3.4896 2.4518 1.5749 3.1631 -1.0226 2.2204 -2.5399 -4.2645 4.0529 -1.5046 1.6377 -4.5608 0.0747 0.1202 3.0280 -2.1476 1.5933 -2.3703 1.0872 1.0000 1.1281 0.7864 1.6148 -5.4196 2.5839 -0.4303 -4.8306 -3.6632 -0.3725 -5.9633 -2.7564 0.1480 -3.6644 -3.3252 0.2556 -5.8470 -1.5725 0.8479 -3.5471 -2.0592 -4.6668 4.7002 -0.1996 1.0346 4.0594 -0.0921 2.1389 0.1483 2.7634 -3.0017 3.2323 -1.3377 -2.3224 2.9952 -2.6745 0.9659 -3.6719 1.0995 0.3638 2.8523 -0.7216 1.7431 -0.0007 1.2996 0.8448 -1.2088 1.1370 1.2042 1.6177 -0.4915 1.0660 -4.1766 2.5246 0.8836 -4.5887 -1.2073
2.1509 0.1179 4.0133 0.1052 -4.5633 -1.8995 -4.8296 6.9443 -2.3980 -3.0529 8.1915 -3.5651 -2.7822 -0.0042 -1.5032 -3.1963 2.0682 -2.7367 -1.0818 -1.5186 3.1896 -2.0638 7.2299 0.3054 0.5978 6.0424 0.1335 -0.7414 -2.1120 0.0600 0.7044 1.6101 -0.6695 2.7700 -2.3152 -1.9165 1.3203 -1.0607 3.5692 -1.1174 4.3759 -0.0778 -2.4741 6.3878 -1.9649 3.0032 -4.1951 0.4617 -1.2750 3.4332 -1.1729 1.5156 -2.2632 0.5802 -0.6877 0.5559 0.8533 1.3136 -3.9821 -2.3994 2.2845 -7.9448 2.4113 2.6240 -7.8930 1.0005 2.1961 -6.8066 3.1221 2.8303 -6.7073 0.3978 2.4266 -5.5272 2.4747 -3.4362 7.5098 -2.2756 -2.1757 1.3189 -1.9068 0.0655 -0.5859 2.8747 -1.4414 6.7660 -0.9228 -0.4818 5.6163 -0.6779 1.7568 -3.5271 -0.0834 -1.6707 2.1079 -0.6980 0.2920 -0.3701 1.3888 0.2677 -1.6646 0.5965 -0.4098 1.4220 -0.1883 1.9915 -3.1827 -1.5350 2.7018 -5.4742 1.1589
-1.4246 -2.0346 4.3555 2.5641 -3.3771 -3.6533 -4.2097 7.0941 -3.3055 -1.8662 7.6753 -3.7626 -2.3756 0.0843 -1.8044 -2.8660 2.2612 -2.7866 0.2799 0.5166 3.6615 -2.8663 6.9382 0.4762 -0.1292 6.1485 1.1180 -0.5483 -2.2260 -0.0318 0.9331 1.7241 -0.3719 3.5853 -2.2837 -1.4534 -1.3821 -1.2345 3.0752 -1.3710 4.3228 0.2017 -2.4462 6.2780 -1.8134 3.0399 -4.2731 0.7450 -1.0323 3.5120 -0.9562 1.6720 -2.2747 0.6338 -0.6259 0.4290 0.7499 2.0000 -3.6843 -2.3791 1.7210 -8.0896 2.1523 2.2164 -7.9248 0.7978 1.6069 -7.0224 2.9627 2.5897 -6.7093 0.3604 2.0215 -5.7107 2.4959 -2.8829 7.4385 -2.6724 -1.8188 1.4720 -2.0289 0.0189 -0.7211 2.8333 -1.8193 6.7253 -0.5102 -0.7971 5.7015 -0.0474 2.0185 -3.4956 -0.0564 -1.4362 2.1336 -0.7103 0.3268 -0.4578 1.3728 0.3994 -1.7422 0.5790 -0.2305 1.4291 -0.1161 2.6479 -3.0642 -1.3538 2.4867 -5.5587 1.2429
5.4852 -0.2082 0.9892 -0.7337 -4.3457 4.8482 -5.6893 7.3760 -2.7565 -5.8590 5.5370 -1.1204 -2.5869 1.4269 -0.7676 -1.2482 2.2430 -2.6941 3.1971 -1.2852 -0.7606 -2.0694 5.5309 -2.8583 -2.0910 6.0850 0.7767 -0.4255 -1.5177 0.5695 -0.1558 1.6271 1.8822 -1.2333 -5.1327 2.3590 4.0648 0.3013 0.9597 -0.4635 4.8105 -0.4559 -3.6883 6.6680 -1.5063 1.7903 -4.9965 1.3219 -0.9335 3.6058 0.2056 1.1829 -2.6657 1.7586 1.1616 0.6588 0.2419 0.1925 -4.0456 3.8058 2.7538 -5.9482 -2.7399 3.7527 -5.4209 -1.8285 1.4919 -6.1437 -2.3174 3.4146 -5.1142 -0.5638 1.1318 -5.8347 -0.9444 -4.9730 6.1970 -2.1468 -1.1958 1.6582 -1.3060 3.0879 -0.8167 0.6731 -2.6363 5.5771 -1.5177 -1.5372 5.8847 -0.5154 0.6788 -3.9854 1.4829 -0.2771 2.4543 -0.3952 1.6774 -0.4132 1.0670 0.6988 -1.5759 1.0625 0.2303 1.5640 0.7182 -0.2455 -4.4404 2.5802 2.0499 -5.3152 -0.1076
3.5067 1.5861 1.4869 -2.2655 -4.3906 -0.5236 0.7722 6.2767 -2.4959 0.3264 7.4760 -0.3909 -3.1179 -0.1329 2.7512 -5.0789 1.2251 2.1975 1.4379 2.1186 -0.7536 -3.1114 5.8855 -2.2709 -4.5718 4.9368 0.0090 0.4620 -1.6692 1.7127 -2.3672 -0.1007 -0.9741 -0.0358 -5.6684 0.2250 2.0666 1.1312 1.4392 -2.9273 3.2903 -0.7004 -1.0443 5.5260 -1.0395 2.3200 -4.3296 -1.0496 -3.7444 2.2391 -0.1226 1.1057 -2.3090 -0.4201 -0.7555 0.5567 0.5626 -0.9850 -3.7912 -0.7075 6.0289 -5.5129 0.7334 5.8834 -4.2255 0.0789 4.9853 -6.3593 0.7937 4.6961 -3.8638 -0.4378 3.7059 -5.9766 0.2189 -0.3042 6.7385 -1.5455 -3.8772 0.5147 1.6148 1.6365 0.8319 0.0177 -2.5332 5.7704 -0.9398 -3.1854 4.6698 -0.1186 1.3185 -3.7048 -0.0979 -2.9606 1.4321 0.8105 0.3955 -0.0433 -0.0812 0.6434 -1.4104 0.5260 -2.0198 0.5551 0.0029 0.0343 -4.5058 -0.1588 3.5602 -4.7664 -0.3528
3.5069 1.5625 0.7701 -2.2963 -4.8359 -0.1645 0.3234 5.5150 -3.4144 0.4844 6.9375 -1.4092 -2.6989 0.1372 3.3615 -4.6947 1.5130 2.9897 1.2371 1.5640 -1.3321 -3.4121 5.5346 -2.2611 -4.3497 4.9415 0.3834 0.4570 -1.7377 1.8894 -2.6463 -0.3345 -0.4024 -0.1060 -5.7064 1.1176 2.0734 1.1313 0.9750 -3.0499 3.0840 -0.4988 -1.1422 5.0812 -1.5075 2.1879 -4.6415 -0.6744 -3.7776 2.1712 0.3644 0.9389 -2.5778 -0.2128 -0.7617 0.4481 0.7015 -1.0107 -4.2893 -0.4577 6.3459 -3.7323 -0.1422 5.4524 -3.7429 1.0023 5.8743 -4.0293 -1.3658 4.1517 -4.0420 0.8383 4.4659 -4.3304 -1.5450 -0.4570 6.1662 -2.3001 -3.6356 0.6774 2.3041 1.4995 0.5080 -0.2813 -2.5419 5.4793 -1.0950 -3.0577 4.5283 -0.0274 1.2324 -3.9139 0.2489 -2.8588 1.4426 1.2366 0.2310 -0.2962 -0.0431 0.5449 -1.5921 0.6738 -2.1082 0.4276 0.3944 -0.0311 -4.7334 0.3755 3.6293 -4.3149 -0.4918
0.7047 -2.1855 -4.2882 3.9421 -1.5440 4.0415 -2.4974 10.0536 -1.9211 -3.8238 8.6948 -0.3516 -2.1844 1.7410 2.5429 -4.0370 1.6835 0.8921 -1.1204 -2.7219 -1.8531 -1.7798 6.2063 -3.1276 -0.8198 5.8794 0.3654 -0.4182 -2.1314 1.3887 0.6996 1.5808 0.2903 2.5404 -3.7962 3.9677 0.4276 -1.2488 -3.1378 -1.4696 3.9959 -1.0304 -1.7325 7.7996 -1.3355 3.0298 -4.5438 0.9875 -1.3948 3.3124 0.2477 1.7914 -2.4581 0.7650 -0.6267 -0.1482 -0.4988 3.2738 -1.9255 2.8422 1.1114 -8.0248 -0.5962 1.2036 -7.8216 0.8383 1.5830 -7.0923 -1.4431 1.7946 -6.7154 1.3236 2.2188 -5.8965 -0.9206 -2.9515 8.6552 -1.5820 -2.5878 1.3475 1.1416 0.2202 -2.0212 -1.8560 -1.9738 6.3470 -1.6912 -0.9897 5.4382 -0.9738 2.0609 -3.5764 1.6302 -1.6951 1.9051 0.0461 0.4270 -1.1258 -0.6488 0.5151 -1.9542 0.6128 -0.3976 1.1279 -0.0222 2.6384 -3.1243 2.9458 2.3176 -5.7124 0.4084
-1.4987 -0.7585 4.3118 3.1519 -2.5132 -2.9504 -4.2264 9.0181 -1.0654 -3.9971 7.3162 0.6960 -1.6200 0.0249 -2.3362 -1.8903 2.1370 -3.5213 0.9296 1.0408 3.2564 -2.8399 5.1238 -2.2477 0.1518 6.6424 -0.8672 -0.7348 -2.1321 0.3432 1.7251 1.1498 -1.0006 1.8869 -4.6699 -2.0721 -1.2070 -0.1810 2.9483 -0.1886 4.3088 -0.7818 -2.4763 7.3011 -1.2826 2.5988 -4.6361 0.9505 0.1684 3.3318 -1.7979 1.5298 -2.4750 0.7277 -0.0652 0.6051 0.3744 2.7368 -2.5882 -1.5871 0.8269 -8.1299 2.6857 0.6456 -6.8241 3.2938 1.5516 -8.2530 1.5594 1.1965 -5.7349 2.7284 2.1473 -7.0775 0.9486 -3.8787 7.5767 -0.7860 -0.9230 1.3202 -2.6940 0.2816 -0.1976 2.6805 -2.1027 5.8334 -1.2119 -0.6188 5.5988 -1.4467 1.6266 -3.7940 0.1500 -0.4754 2.0692 -1.4467 0.6354 -0.3354 1.2130 0.3655 -1.7341 0.7107 0.5426 1.2445 -0.6882 2.0854 -3.7452 -1.2912 1.9588 -5.8630 1.4964
0.1664 -0.3700 5.8685 -0.3192 -5.2101 2.7927 -6.0655 3.3759 -3.5651 -4.0027 2.1882 -4.1820 2.1902 4.6234 2.3574 -0.1510 5.1674 2.9810 2.0280 -1.6906 3.8620 -2.7967 5.6562 -2.2007 -2.5720 2.7827 -0.1136 -0.5501 -0.9778 0.5345 1.9036 1.8933 0.2983 -0.6434 -4.9669 0.1720 0.7344 0.2573 4.6152 -0.5321 3.6012 -0.9674 -4.0739 3.6190 -2.1532 2.2799 -3.9753 -0.5629 0.3096 4.1796 0.0704 1.4236 -2.1556 0.8063 0.4530 1.0884 1.9238 0.5503 -4.3614 2.0446 2.1710 -4.5773 -4.7998 2.8034 -3.4026 -4.2272 1.5780 -5.4811 -3.9997 2.7992 -3.2167 -2.8951 1.5903 -5.2912 -2.5600 -4.5578 3.4536 -3.5748 0.7872 4.0861 2.5073 0.8688 -0.7769 3.5164 -2.6805 4.2105 -2.0715 -1.9956 3.9189 -0.7438 1.0530 -3.2803 -0.0164 0.2506 3.3683 1.2828 1.1031 -0.1882 2.1292 0.5409 -1.1274 1.0774 0.9821 2.0600 1.0912 0.2081 -4.2841 0.7312 2.1656 -4.1965 -2.0291
3.8332 -0.7337 0.8079 -2.0863 -5.4052 2.3807 -1.6920 9.3906 -2.5059 -3.8679 8.2853 -2.8387 -2.8896 2.2822 3.0379 -3.8154 0.3307 1.8238 1.9809 0.6680 -1.9795 -0.5370 5.6003 -1.9192 -3.7464 5.2301 -0.1843 0.5607 -1.6129 1.8687 -2.1021 0.0528 -0.9584 -1.2384 -4.8841 -0.0805 2.8654 0.3141 0.3121 -2.3324 3.4413 -0.9390 -2.1693 7.2610 -1.3542 1.7366 -5.2500 -0.0600 -3.0091 2.5366 -0.0248 0.8319 -2.9883 0.0190 -0.1309 0.4520 0.1996 -0.7389 -4.9855 2.1705 5.9990 -5.1028 0.2963 5.1948 -5.8012 1.2830 5.4039 -4.4548 -0.7209 3.8534 -5.8052 1.1798 3.9569 -4.4709 -0.8411 -2.3928 8.0591 -2.6187 -2.5992 1.2057 2.0210 2.0129 -0.2642 -0.7929 -1.9585 5.7937 -1.6708 -2.4033 4.9017 -0.5194 0.9478 -4.2341 0.7436 -2.0235 1.7822 0.7383 0.6136 -0.6528 -0.3560 0.6596 -1.7751 0.6566 -1.4582 0.6711 -0.1167 -0.4685 -4.7349 0.8596 3.2091 -5.1025 0.0824
-1.5352 -2.9620 2.8449 2.5813 -3.6356 -3.7602 -4.4134 7.3267 -2.9219 -2.1139 7.9007 -3.5843 -2.6904 -0.0659 -2.0068 -3.1248 2.1270 -2.9837 0.0457 0.2847 3.4146 -2.3818 6.8153 0.6086 0.3458 5.7588 0.5844 -0.5236 -2.4109 -0.3594 0.7962 1.3650 -0.8766 3.5329 -2.3650 -1.6297 -1.5711 -1.4588 2.7087 -1.2419 4.1116 -0.1150 -2.5208 6.2929 -1.7523 3.1779 -4.2840 0.6511 -1.0992 3.2926 -1.3074 1.6487 -2.3932 0.4603 -0.7443 0.2361 0.4380 2.0260 -3.8970 -2.4724 1.9485 -6.7663 3.9134 2.1051 -7.3172 2.5790 2.1485 -5.4539 4.1280 2.4521 -6.5165 1.5549 2.5404 -4.5929 3.0270 -3.0086 7.5547 -2.4196 -2.0733 1.2855 -2.2925 -0.1678 -0.9251 2.5377 -1.5948 6.5841 -0.5914 -0.6028 5.4489 -0.4199 2.0763 -3.6279 -0.1577 -1.5590 1.9398 -1.0152 0.2072 -0.6214 1.1012 0.3674 -1.8994 0.3110 -0.3563 1.1725 -0.5001 2.6560 -3.2063 -1.4822 2.6669 -5.0974 1.7859
-3.8887 -2.3645 2.5119 3.6085 -1.5930 -2.7065 -0.9582 7.7297 -3.6360 0.2180 6.4986 -1.8621 1.3174 3.3548 -0.5880 0.2990 4.2477 1.4931 -0.9726 -1.6169 3.0102 -3.6273 7.3334 -0.5072 -3.8219 4.8622 0.9724 1.5174 -0.9108 0.9020 -1.0574 0.8937 -1.5643 4.1959 -3.3665 -0.7986 -3.0670 -1.4165 1.6725 -3.0025 3.5930 -0.8635 -2.2434 6.2574 -2.1300 1.6155 -5.0027 -0.5001 -1.5573 3.5152 -0.9552 0.7021 -2.7450 -0.2527 -0.9104 0.3437 0.6824 2.5701 -2.2901 -2.0233 2.9281 -7.8822 2.3898 3.8909 -7.1768 1.5638 1.6137 -7.6276 2.2595 3.4705 -6.2522 0.6807 1.1598 -6.6285 1.3090 -1.0659 7.2039 -2.2261 0.3534 3.0785 0.5421 -1.6059 -1.8168 1.6480 -2.7531 6.1850 -0.7075 -3.5593 4.9331 -0.4226 1.8936 -3.5598 -0.1266 -1.0391 2.6563 0.1026 -0.8701 -1.0974 0.5253 0.5784 -1.5452 0.4273 -1.0076 1.2200 -0.3823 3.0257 -3.0569 -0.9964 2.0496 -5.9567 0.5566
-0.4888 -2.7930 3.2817 0.8661 -4.8336 -3.4003 -5.0106 7.1730 -2.5675 -2.9202 7.6549 -3.7737 -3.5778 1.6701 -2.3060 -1.3276 1.3277 -3.2811 0.6597 0.6636 3.2871 -2.5334 6.9942 0.5576 0.2466 6.0863 0.2980 -0.5990 -2.1969 -0.1949 0.8262 1.7314 -0.7918 2.6046 -3.1638 -2.2726 -0.7916 -1.3338 3.0344 -1.3039 4.3010 -0.0851 -2.8889 6.2736 -1.7279 3.1313 -4.2983 0.4681 -1.2858 3.4350 -1.2519 1.6694 -2.3572 0.2657 -0.5478 0.4380 0.5541 0.9220 -4.7191 -1.9796 2.8786 -6.8762 3.8744 2.6743 -7.3961 2.5342 3.1065 -5.5638 4.0599 2.7181 -6.5673 1.4752 3.1648 -4.6704 2.9168 -3.5358 7.4523 -2.4112 -2.1519 1.2687 -2.0143 0.4533 -0.6335 2.5428 -1.8656 6.7064 -0.7007 -0.7922 5.6450 -0.5549 1.8169 -3.7591 -0.0568 -1.5729 2.0649 -0.8551 0.5000 -0.4289 1.0412 0.4291 -1.7467 0.3024 -0.2887 1.4196 -0.3832 1.8566 -3.8212 -1.5609 2.9587 -5.1470 1.6757
3.1120 0.8839 4.3990 -3.1339 -3.5299 0.5830 -4.9292 8.4672 -2.5006 -5.6261 7.2396 -0.4828 0.1877 1.7133 -3.2330 1.9626 3.3773 -2.7425 3.7491 -0.4263 1.6887 -2.6440 5.1746 -2.4606 -1.5908 6.3959 0.8397 1.8140 -1.7134 -0.6183 -1.0148 0.9631 0.0746 -1.2541 -4.7908 -0.7963 2.3086 1.0049 3.1269 -1.0113 4.2653 0.0473 -3.2760 7.1296 -1.2573 0.8858 -5.0796 1.5539 -0.7283 3.4189 -1.0962 0.7380 -2.6706 1.1990 1.2743 0.7705 0.3789 -1.7792 -3.4932 1.0301 2.9607 -8.3385 -0.3030 1.5346 -8.1570 -0.5007 3.6531 -7.4686 0.4541 0.9031 -7.1225 0.0821 2.9723 -6.3447 1.0744 -4.7222 7.2117 -1.6894 1.1358 2.2466 -2.1833 2.3800 -0.2711 2.3156 -2.8015 5.6945 -1.1073 -1.4624 5.6546 -0.3722 0.5162 -3.9638 0.5984 0.4754 2.6342 -0.8683 1.2486 -0.3423 1.3017 1.3084 -1.6265 0.4972 0.1270 1.3802 -0.0923 -0.9261 -4.1222 0.1780 1.6528 -6.1650 0.8814

>  <OB_ATOM_TYPES> (5er1A1)
C.3 C.3 C.3 C.3 C.3 C.3 C.3 N.3 O.3 O.2 O.2 O.2 C.3 C.3 C.3 C.3 N.3 N.am N.am O.3 C.ar C.ar C.ar C.ar C.ar C.3 C.3 C.3 C.3 C.3 C.3 C.3 C.3 C.2 C.2 C.2 C.ar

>  <ENSEMBLE_RMSD> (5er1A1)
2.374 2.458 2.752 2.851 2.878 2.883 2.907 2.936 3.010 3.066 3.072 3.168 3.218 3.233 3.236 3.287 3.307 3.319 3.324 3.342 3.353 3.373 3.386 3.389 3.413 3.418 3.433 3.463 3.478 3.482 3.503 3.510 3.516 3.524 3.580 3.580 3.592 3.613 3.626 3.650 3.703 3.712 3.719 3.728 3.847 3.867 3.872 4.024 4.038 4.180

$$$$
