
 OpenBabel03071213D

 11 11  0  0  0  0  0  0  0  0999 V2000
   13.3570   57.7810   51.8870 O   0  0  0  0  0
   11.0620   56.7740   53.3450 O   0  0  0  0  0
   12.0900   56.8890   55.9580 O   0  0  0  0  0
   14.8230   57.3560   56.2070 O   0  0  0  0  0
   14.4230   55.7880   55.8950 O   0  0  0  0  0
   14.7570   56.0830   52.8150 C   0  0  0  0  0
   15.1350   56.8380   54.0550 O   0  0  0  0  0
   13.2900   56.4430   52.4480 C   0  0  0  0  0
   12.4230   56.4070   53.7740 C   0  0  0  0  0
   12.9450   57.1400   54.8190 C   0  0  0  0  0
   14.3290   56.6010   55.1940 C   0  0  0  0  0
  1  8  1  0  0  0
  2  9  1  0  0  0
  3 10  1  0  0  0
  4 11  1  0  0  0
  5 11  1  0  0  0
  6  7  1  0  0  0
  6  8  1  0  0  0
  7 11  1  0  0  0
  8  9  1  0  0  0
  9 10  1  0  0  0
 10 11  1  0  0  0
M  END
>  <MOLID> (6abpA1)
6abpA1

>  <SMILES_CANONICAL> (6abpA1)
O[C@H]1COC([C@@H]([C@H]1O)O)(O)O	

>  <FINGERPRINT> (6abpA1)
0000000000000000000000000000000000000001000000000000000000000000000000000000000000000000000000000000000000000001000000010000000010000000001010000000000001000000000000000000000000000000000000000000000000000000001010000000000000000000000000000000000000000000000000000000000000000000000000000000000100000000000000000010000000000000000000000000000000000000010000000000000010000000000000000000000000000000000000000000000000000010000000000000000000000000000000000000000000000000000000000000000000101010100000000000100000000000000000000000000000000000000000000000000000000000000000000001000101000000000000000000000000000000000000000000000000000001000000000000000000000000001000000000000000000000000000000000000000000101000000000000000000000000000010000000000000000000000100000000000000000000000001000000000000000000000000000000000000000000000000000000000000000000000000000010000000000000000000000010000000000000000000000000001000000000000000000000000000000000000000000000000010100000000000000000000000000000000000000000000000000000

>  <MACCS166> (6abpA1)
000000000000001000000000000000000000000000100000000011001000000000000001000000000000000011100000010000010100000100000001001000100011000011110010010001011000101000111000

>  <OB_MW> (6abpA1)
166.048

>  <OB_logP> (6abpA1)
-3.2623

>  <OB_PSA> (6abpA1)
110.38

>  <OB_MR> (6abpA1)
30.967

>  <OB_ATOMIC_CHARGES> (6abpA1)
-0.2176014849 -0.2171811217 -0.2089608003 -0.2410511731 -0.2410511731 0.1850665357 -0.2836567089 0.2146744056 0.2253645855 0.2979330622 0.486463873

>  <MCT_HBD> (6abpA1)
5

>  <MCT_HBA> (6abpA1)
6

>  <ENSEMBLE_TOTAL> (6abpA1)
2

>  <ENSEMBLE_COORDS> (6abpA1)
-0.1552 1.0446 -2.3309 -2.4502 0.0376 -0.8729 -1.4222 0.1526 1.7401 1.3108 0.6196 1.9891 0.9108 -0.9484 1.6771 1.2448 -0.6534 -1.4029 1.6228 0.1016 -0.1629 -0.2222 -0.2934 -1.7699 -1.0892 -0.3294 -0.4439 -0.5672 0.4036 0.6011 0.8168 -0.1354 0.9761
0.2091 1.0701 -2.0784 -1.9588 1.2400 -0.5835 -0.9147 -1.6634 1.1318 0.7933 1.5297 0.8143 1.1547 -0.2473 2.2653 0.8619 -1.0358 -1.1681 1.5334 -0.5262 -0.0216 -0.2947 -0.1789 -1.6365 -1.3273 -0.0249 -0.5336 -0.7660 -0.2756 0.8519 0.7090 0.1121 0.9585

>  <OB_ATOM_TYPES> (6abpA1)
O.3 O.3 O.3 O.2 O.2 C.3 O.3 C.3 C.3 C.3 C.3

>  <ENSEMBLE_RMSD> (6abpA1)
0.000 0.994

$$$$
