
 OpenBabel03071213D

 24 25  0  0  0  0  0  0  0  0999 V2000
   31.9690    1.3740   37.2030 C   0  0  0  0  0
   32.2860    1.8820   43.2060 N   0  0  0  0  0
   25.9180    1.2300   36.2810 O   0  0  0  0  0
   28.0910    0.7540   36.0460 O   0  0  0  0  0
   30.6210    2.5270   41.1520 O   0  0  0  0  0
   29.5260    0.1520   38.7800 O   0  0  0  0  0
   32.3650    1.0860   41.9690 C   0  0  0  0  0
   26.6050    2.9550   38.5710 C   0  0  0  0  0
   26.7740    2.2350   42.1940 N   0  0  0  0  0
   31.8730    1.3760   39.6480 N   0  0  0  0  0
   28.8740    2.2010   38.0560 N   0  0  0  0  0
   25.5160    5.5600   43.1850 C   0  0  0  0  0
   25.3880    6.0580   41.8780 C   0  0  0  0  0
   26.9330    1.8970   40.8680 C   0  0  0  0  0
   25.9800    4.2590   43.4070 C   0  0  0  0  0
   25.7040    5.3050   40.7610 C   0  0  0  0  0
   31.2120    1.8500   38.4310 C   0  0  0  0  0
   27.4290    1.8000   38.0400 C   0  0  0  0  0
   27.1140    1.2230   36.6840 C   0  0  0  0  0
   31.5380    1.7350   40.8640 C   0  0  0  0  0
   29.7780    1.3170   38.4420 C   0  0  0  0  0
   26.5840    2.9620   40.0710 C   0  0  0  0  0
   26.2940    3.5180   42.2660 C   0  0  0  0  0
   26.1680    4.0100   40.9490 C   0  0  0  0  0
  1 17  1  0  0  0
  2  7  1  0  0  0
  3 19  1  0  0  0
  4 19  2  0  0  0
  5 20  2  0  0  0
  6 21  2  0  0  0
  7 20  1  0  0  0
  8 18  1  0  0  0
  8 22  1  0  0  0
  9 14  1  0  0  0
  9 23  1  0  0  0
 10 17  1  0  0  0
 10 20  1  0  0  0
 11 18  1  0  0  0
 11 21  1  0  0  0
 12 13  1  0  0  0
 12 15  2  0  0  0
 13 16  2  0  0  0
 14 22  2  0  0  0
 15 23  1  0  0  0
 16 24  1  0  0  0
 17 21  1  0  0  0
 18 19  1  0  0  0
 22 24  1  0  0  0
 23 24  2  0  0  0
M  END
>  <MOLID> (8gchC1)
8gchC1

>  <SMILES_CANONICAL> (8gchC1)
NCC(=O)N[C@H](C(=O)N[C@H](C(=O)O)Cc1c[nH]c2c1cccc2)C	

>  <FINGERPRINT> (8gchC1)
0000000000000000000000000000001000000000000000000111100000000000000000000001000000000001000000000100010110000001000001100001000000000000000001000001000010000000000000000000000000000000000000000000000000000000001000000000000000000000000000000000000000001100000000000100000000001000100000000000000000001001000010000100000000001000001100000000000000000100010000000000000010110000000000000001111000000000100010000000001000000000010000000010100000000001100000000001100000000000010000000000000000001100000000000000110000010000000000000000000000000000000000100000000000000000000000000000000001100000000001000000100000000000000000000000001000000001010000000000000000000001000000000011100000100000100011100000100000100011100000000000000001000011100100110100000000000000000110000000000000000100001110000000000110000000000000000000000000000000000010000000000000000000000000000000000000000000000000000000000000001100000000000000000000000000000000000000011000000000000000110010000000000100010000100000000000000000000000000010011000100000

>  <MACCS166> (8gchC1)
000000000000000000000000010000000000000000001000010001000000000010000000000100100111000001110011001100011001011000001001101010000011000111111100010010101111111110111000

>  <OB_MW> (8gchC1)
332.148

>  <OB_logP> (8gchC1)
1.2253

>  <OB_PSA> (8gchC1)
137.31

>  <OB_MR> (8gchC1)
87.3963

>  <OB_ATOMIC_CHARGES> (8gchC1)
0.0333717197 -0.1209602744 -0.2437370589 -0.2437370589 -0.2717030191 -0.2714748678 0.1955656467 0.0612302834 -0.2441759057 -0.1965152706 -0.1937982304 0.0015443618 8.85112e-05 0.0946353666 0.0190875576 0.0012316733 0.1728310467 0.2021495046 0.3845425813 0.2611799994 0.2616778908 0.0006824666 0.0810387447 0.0152443317

>  <MCT_HBD> (8gchC1)
5

>  <MCT_HBA> (8gchC1)
8

>  <ENSEMBLE_TOTAL> (8gchC1)
50

>  <ENSEMBLE_COORDS> (8gchC1)
3.0776 0.1235 -2.2773 3.1656 -1.5655 2.9131 -1.0824 -0.5689 -4.3918 -2.0331 -2.5182 -3.7061 1.9543 1.0189 1.7706 1.0788 -1.8423 -0.4329 3.8046 -0.3815 2.3632 -2.2139 -0.1226 -1.5274 -2.2745 -0.6924 2.1336 3.1014 -0.1460 0.1143 0.1760 -0.4030 -2.0099 -0.8576 2.6740 2.8008 -0.7926 3.1209 1.4130 -2.5442 -1.0958 0.8087 -1.3237 1.4462 3.1064 -1.1951 2.3167 0.4079 2.2577 0.1984 -1.0079 -1.1216 -1.0285 -2.0547 -1.4571 -1.4687 -3.4510 2.8311 0.2417 1.4096 1.1328 -0.8109 -1.0968 -2.2121 -0.1021 -0.0489 -1.7614 0.5989 2.0247 -1.7108 1.0073 0.7385
2.7353 1.2047 -1.9229 4.3616 -2.7660 1.5285 -0.7117 -0.8964 -3.9905 -1.5633 -2.8104 -3.1043 2.6654 -0.3101 2.0852 1.6688 -1.8897 -1.1422 4.7431 -1.3632 1.5133 -2.2718 -0.1744 -1.3740 -2.8102 -0.2511 2.2947 3.4746 -0.1676 -0.0906 0.1654 -0.1803 -1.5702 -1.8657 3.3270 2.6032 -1.6418 3.5781 1.1836 -2.8253 -0.8688 1.0247 -2.2431 2.1072 3.0369 -1.8026 2.5951 0.2751 2.3056 0.4131 -0.7080 -1.0245 -0.9903 -1.6290 -1.1325 -1.6734 -2.9638 3.5015 -0.5723 1.2272 1.3767 -0.6975 -1.1507 -2.4694 0.0300 0.0765 -2.4226 1.0656 2.0563 -2.2133 1.2909 0.7410
3.4725 -0.9336 -2.5359 4.9056 -0.9914 2.7536 -0.5141 -0.9568 -3.7871 -2.2021 -2.0637 -2.7443 5.4186 0.2679 -0.0058 1.2625 -2.3344 -0.7379 5.3604 -1.5884 1.5083 -1.6891 0.6814 -1.2665 -4.0207 -0.1514 1.5024 3.6841 -1.2745 -0.1428 0.5703 -0.2392 -1.4509 -3.2214 3.0033 3.2844 -2.2835 3.5330 2.3010 -3.4118 -0.4366 0.2623 -3.8181 1.8101 3.0931 -1.9870 2.8382 1.1845 2.9095 -0.6131 -1.1684 -0.8368 -0.5550 -1.4537 -1.2632 -1.2783 -2.7060 4.8345 -0.7347 0.3920 1.5128 -1.1816 -1.0790 -2.5582 0.5613 -0.0733 -3.4989 1.0792 1.8913 -2.6260 1.5582 0.9786
3.0855 0.5988 -2.3131 3.3533 -0.2441 2.9931 -2.2574 -2.6127 -2.6866 -1.1054 -1.3312 -4.1786 3.4823 -2.3935 0.8223 0.9777 -0.1922 0.2467 4.4253 -0.5747 2.0680 -1.6363 0.3897 -1.6476 -3.7414 0.1052 1.3918 3.6501 -0.2896 -0.1546 0.5133 -0.7367 -1.9560 -1.6498 2.5617 3.2268 -0.7313 2.8685 2.1355 -3.4265 -0.2350 0.0592 -2.6578 1.6835 3.0522 -0.8660 2.2742 0.9329 2.8071 -0.5008 -1.3118 -0.9067 -0.9326 -1.7856 -1.3966 -1.6206 -3.0280 3.7920 -1.2079 0.8649 1.3504 -0.4408 -0.8960 -2.3409 0.4643 -0.3494 -2.7889 1.0512 1.7621 -1.9320 1.3152 0.7517
3.4654 -1.3779 -2.8060 3.2656 -2.2635 2.7470 -0.9290 -1.2383 -3.7267 -2.5740 -1.7181 -2.2339 3.4291 0.2321 1.1574 1.1302 -2.4075 -1.0097 4.3269 -1.8910 1.8261 -1.3349 1.0831 -1.5267 -0.5938 2.6149 1.7563 3.6522 -1.4755 -0.4050 0.6553 -0.2872 -1.8183 -3.8826 1.6283 3.1502 -4.4078 0.9955 1.9451 -0.2600 2.2936 0.4257 -2.6512 2.1762 3.1568 -3.6678 0.9289 0.8190 2.9288 -0.8615 -1.4920 -0.7551 -0.3117 -1.5345 -1.5169 -1.1665 -2.5103 3.7403 -0.9136 0.8507 1.4905 -1.2958 -1.3833 -1.2898 1.6367 -0.1585 -1.8755 2.1074 1.9436 -2.3457 1.5114 0.8270
1.9275 1.2728 -0.3896 4.5355 -0.2107 3.1156 -0.7729 -0.8138 -4.4067 -2.2427 -2.3742 -3.6435 5.0204 0.0824 0.0961 0.5263 -1.8125 -0.0061 4.5920 -1.2154 2.0662 -2.0987 0.2638 -1.7704 -3.4088 -0.3279 1.6482 2.8885 -0.7613 0.4852 0.2091 -0.5627 -1.9229 -1.3606 2.4382 3.0342 -0.7710 2.8763 1.7739 -3.3615 -0.6190 0.2677 -2.2276 1.4067 3.0692 -1.0777 2.2543 0.6182 2.2112 -0.1889 -0.6559 -1.1830 -0.9037 -2.0665 -1.4610 -1.4557 -3.4322 4.2147 -0.5382 0.7816 0.9048 -0.9452 -0.7912 -2.5196 0.2415 -0.3524 -2.5482 0.7519 1.8252 -1.9968 1.1416 0.6561
3.2741 -0.5810 -2.5171 3.6001 -1.4721 3.0026 -1.9954 -2.6612 -2.4256 -0.9961 -1.4104 -4.0492 3.0125 1.0130 1.4231 1.1343 -1.8828 -0.3286 4.4606 -0.7935 2.0478 -1.8850 0.5878 -1.8351 -4.1056 1.3714 1.0264 3.5267 -0.6457 -0.1234 0.3705 -0.3026 -1.8409 -1.2462 1.6045 3.3845 -0.1924 1.3170 2.4191 -3.8778 1.0601 -0.3317 -2.5379 1.6492 3.0003 -0.4891 1.0967 1.1234 2.6585 -0.2025 -1.1886 -1.0249 -0.6524 -1.7368 -1.3183 -1.5777 -2.8825 3.5701 -0.0334 1.1109 1.3284 -0.9097 -1.0509 -2.5514 0.8987 -0.5514 -2.8425 1.3978 1.6122 -1.8732 1.1288 0.7117
2.9510 -2.4103 -2.0899 2.7297 -0.8259 3.1996 -0.7858 -0.8234 -4.3071 -2.8089 -1.2415 -3.3644 3.3655 0.7830 0.6843 0.4722 -1.9691 -0.0854 3.8726 -0.9080 2.3067 -1.3811 1.0429 -1.7323 -0.0327 2.2223 1.5071 3.1507 -1.4631 0.1199 0.3961 -0.6284 -1.9771 -3.0522 1.1153 3.3566 -3.8028 0.6309 2.2031 0.0426 2.0516 0.1095 -1.8203 1.6414 3.2034 -3.2785 0.6895 0.9617 2.5293 -1.2877 -1.1697 -1.0309 -0.4146 -1.9642 -1.6453 -0.8748 -3.2616 3.4230 -0.4093 0.9658 1.0310 -1.3530 -0.9873 -1.0909 1.4662 -0.3450 -1.2754 1.7108 1.8694 -1.9590 1.2552 0.7967
3.2989 -1.5869 -2.0829 4.5261 0.6626 1.8248 -0.5032 -0.4632 -4.0846 -2.6382 -0.5499 -3.3119 4.5313 -2.2770 1.0082 0.2096 -2.8982 -1.2220 3.6437 -0.4208 2.2289 -0.9841 1.2320 -1.4273 -0.3735 1.8386 2.1666 2.6218 -1.1945 0.2341 0.5422 -0.6523 -1.6750 -3.9790 1.5602 2.9939 -4.4636 1.3715 1.6308 0.0587 1.7135 0.8311 -2.6626 1.7139 3.2389 -3.6064 1.3286 0.5901 2.4099 -2.0082 -0.9353 -0.8472 -0.2486 -1.7286 -1.4346 -0.4655 -3.1008 3.6652 -1.4143 1.1080 0.9425 -1.9131 -1.2837 -1.0062 1.4945 0.0243 -1.7567 1.6847 2.1179 -2.1944 1.4924 0.8546
3.3572 -1.5665 -2.1321 3.5408 0.9641 2.7273 -0.3407 -0.6111 -4.0412 -2.2805 -1.6196 -3.4137 4.9566 -0.9069 0.8238 0.6294 -2.8644 -0.7217 3.9388 1.1969 1.3487 -1.4212 0.7610 -1.4826 -4.1060 0.4629 1.0580 2.8744 -0.3732 -0.0668 0.5381 -0.6894 -1.5196 -1.8989 1.9064 3.6732 -0.7288 2.1175 2.8270 -3.6285 0.3221 -0.2640 -3.0268 1.3629 3.1716 -0.7511 1.7762 1.5235 2.6586 -1.5993 -0.7928 -0.8872 -0.6336 -1.7225 -1.2463 -1.0313 -3.1264 4.0021 -0.1482 0.6924 1.1723 -1.7942 -0.9881 -2.3473 0.7551 -0.3336 -3.0409 1.0059 1.7743 -1.9641 1.2068 0.9855
2.5982 -3.3530 -2.0365 4.5790 -0.5364 2.3465 -0.6294 0.4899 -3.7496 -2.6070 0.3135 -2.6470 4.4400 0.2034 -0.5796 0.9470 -1.9640 0.1766 5.2277 -1.1784 1.2150 -0.3680 1.0647 -0.5795 -1.6534 0.3008 2.8141 3.6510 -1.9738 -0.3622 0.6954 -0.7534 -1.7926 -4.8294 2.0922 2.1206 -4.5048 2.5195 0.7637 -0.6504 0.2400 1.8235 -3.9525 1.3684 2.8454 -3.3260 2.1884 0.2006 2.7175 -1.9595 -1.4642 -0.5701 -0.1551 -1.4502 -1.3856 0.2218 -2.6599 4.3994 -0.8751 0.0023 1.3711 -1.5736 -0.9068 -1.0670 0.8869 0.7093 -2.6923 1.0253 2.2347 -2.3905 1.4076 0.9757
2.9369 -2.0821 -2.1558 4.8155 -0.9920 2.9290 -0.9436 -0.5274 -4.0964 -2.7733 -1.1872 -2.9183 5.3177 -0.6933 -0.0249 0.5487 -1.6757 0.1345 4.8051 -2.0229 1.9044 -1.2419 1.2978 -1.5381 -0.7346 2.1072 2.0402 3.2041 -1.6363 0.2054 0.4758 -0.4229 -1.8105 -4.2940 1.4401 2.8491 -4.7292 1.1140 1.4949 -0.2757 1.9799 0.7128 -3.0102 1.7671 3.0995 -3.8577 1.1294 0.4660 2.6148 -1.1382 -1.0176 -0.9408 -0.1697 -1.7414 -1.6549 -0.6901 -2.9561 4.4922 -1.3495 0.6011 1.1157 -1.1294 -0.8081 -1.2981 1.6061 -0.0927 -2.0894 1.7886 1.9896 -2.4832 1.4866 0.7333
3.1188 -0.8124 -1.9777 6.0337 -2.2050 1.3497 -1.6329 -2.6217 -2.5012 -0.6537 -1.1009 -3.8894 5.1033 0.5951 0.4063 0.8008 -1.7225 0.2809 5.1370 -1.2332 1.9544 -1.9434 0.6469 -1.7586 -4.6702 1.0180 0.7211 3.3452 -0.9262 0.4302 0.3060 -0.1551 -1.3505 -2.3183 2.1467 3.3618 -1.1044 2.1026 2.5538 -4.1855 0.6852 -0.5621 -3.5133 1.8237 2.8273 -1.1486 1.7165 1.2628 2.5737 -0.3473 -0.6447 -1.0628 -0.5650 -1.5511 -1.0758 -1.4182 -2.7877 4.5574 -0.4138 0.8402 1.1509 -0.8403 -0.4975 -2.8442 0.8630 -0.6070 -3.5478 1.4144 1.4442 -2.4259 1.3493 0.6949
3.2906 -1.5442 -3.2469 6.0918 -1.1216 1.5337 -0.5455 0.6588 -2.9423 -2.2940 -0.3432 -1.8898 3.5966 -2.5401 0.9433 0.7651 -2.7396 -1.6277 4.8454 -0.4971 1.1221 -0.1611 1.0704 0.1218 -2.3949 0.5592 3.0382 3.8175 -1.1538 -0.9089 1.1404 -0.4930 -1.2157 -5.1730 2.3832 1.3831 -4.4528 2.7443 0.1667 -1.1579 0.4041 2.3754 -4.5633 1.6870 2.3638 -3.1661 2.3810 -0.0066 3.0060 -1.9275 -1.8152 -0.1840 -0.1780 -0.7364 -1.1237 0.0160 -1.9000 4.0416 -1.5358 0.3977 1.5263 -1.7782 -1.5327 -1.2025 1.0215 1.1713 -3.1856 1.3056 2.1675 -2.5168 1.6212 1.0375
3.0538 -2.6826 -2.6276 6.7635 -1.1086 1.1191 -0.5835 1.1418 -2.9849 -2.5305 0.2688 -2.2075 4.4044 0.2691 0.1306 1.2406 -2.3728 -0.0968 5.3993 -1.5716 1.3126 -0.3733 0.5890 0.1528 -3.1055 -0.2682 2.5137 3.9347 -1.9145 -0.5144 0.8356 -0.6230 -1.5686 -5.0474 2.7153 1.4489 -4.0755 3.2328 0.4916 -1.8472 -0.5331 1.9269 -4.7960 1.5924 2.1524 -2.9079 2.5931 0.2845 2.9992 -1.6046 -1.5703 -0.4772 -0.2917 -1.0735 -1.3120 0.3758 -2.1396 4.5538 -0.9429 0.2440 1.6128 -1.5998 -0.9741 -1.5508 0.4376 1.0309 -3.5444 0.9144 1.9202 -2.6464 1.3832 1.0290
2.9186 0.7281 -1.0794 4.8301 -3.2815 2.1532 -0.9844 -1.3682 -3.8666 -2.7408 -2.0185 -2.5762 5.2852 -1.7486 -0.3932 0.5973 -1.0686 0.5764 4.8570 -1.8406 1.9646 -1.6009 0.8708 -1.7742 -0.7455 2.7736 1.2791 3.2049 -1.1278 0.4394 0.3488 -0.6246 -1.6796 -3.8934 1.7983 2.9792 -4.4685 1.0388 1.8736 -0.4907 2.3466 -0.0392 -2.6827 2.3783 2.8579 -3.7971 0.8882 0.7133 2.5696 -0.7166 -0.7918 -1.0910 -0.5486 -1.6342 -1.6929 -1.4011 -2.7129 4.4977 -1.5861 0.5317 1.0829 -0.8202 -0.5246 -1.5193 1.5862 -0.4834 -1.9833 2.2268 1.6060 -2.5016 1.5153 0.5809
3.2628 -1.7753 -2.7562 6.4857 -0.4598 1.0449 -0.5735 -0.5231 -3.3209 -2.1189 -1.6600 -2.0998 3.7708 -1.7605 1.5591 1.0595 -2.8678 -0.4618 5.1606 0.1352 1.0948 -0.6745 1.0503 -0.7356 -4.2846 1.7318 -0.2730 3.7698 -0.8250 -0.5710 1.0157 -0.6471 -1.1272 -3.9218 2.0807 3.3999 -2.4816 1.8519 3.4616 -3.1568 1.4609 -1.0731 -4.5736 2.0467 2.2206 -1.7734 1.5882 2.3448 3.0866 -1.8895 -1.2614 -0.3993 -0.4267 -0.9439 -1.1228 -0.9514 -2.1597 4.1819 -0.9441 0.7409 1.6200 -1.8663 -0.9016 -2.0579 1.3281 -0.2927 -3.8033 1.7738 1.0319 -2.4715 1.5490 1.0795
3.3468 0.6315 -1.5530 6.0977 -2.9655 1.3128 -2.3512 -2.0550 -1.9063 -1.3602 -0.9640 -3.6473 3.4686 -3.4094 -0.1074 1.1994 -0.5884 0.6564 4.7727 -2.5025 1.6916 -1.1383 1.0847 -1.4677 -1.0125 2.7255 1.8507 3.7757 -1.1109 0.0541 0.5980 -0.6200 -1.5814 -4.5987 2.0226 2.4919 -4.8830 1.3564 1.2246 -0.4194 2.3208 0.6365 -3.3652 2.4945 2.7625 -3.9156 1.1903 0.3004 2.9194 -0.7269 -1.0446 -0.8077 -0.3894 -1.3525 -1.5103 -1.1373 -2.4467 3.9523 -2.4232 0.4383 1.5001 -0.6316 -0.5331 -1.3365 1.6883 -0.1332 -2.3398 2.3139 1.7637 -2.5924 1.6954 0.5897
1.5199 0.3917 1.8559 5.3517 -2.8307 -0.3997 0.0322 -0.3693 -3.6316 -0.9707 -2.3828 -3.2879 4.1671 -0.2797 -1.5216 1.2991 -2.0715 -0.1498 5.5129 -1.4641 0.0709 -2.0976 0.0808 -1.4200 -3.4534 -0.2756 2.0198 3.4222 -0.5067 0.6679 0.3013 -0.1524 -0.9812 -2.6296 3.2623 2.7904 -2.1043 3.6153 1.4756 -3.1744 -0.7974 0.7368 -3.0796 2.0165 3.0443 -2.0530 2.7026 0.4857 2.1270 0.1108 0.5017 -0.8778 -0.8087 -1.4761 -0.6216 -1.2846 -2.8763 4.3046 -0.6947 -0.3758 1.2174 -0.8498 -0.2206 -2.6223 0.1656 -0.0390 -3.0334 1.0520 1.9726 -2.5377 1.3704 0.7579
3.0777 -2.2077 -1.9967 4.6812 0.8026 2.3137 -0.0958 -0.9858 -3.6798 -2.3044 -1.1360 -3.1723 5.2178 -1.5640 0.5647 0.3741 -2.6795 -0.1620 4.7742 0.7718 0.8634 -1.0939 1.0985 -1.3863 -4.2805 1.8594 0.3461 3.1724 -0.6753 -0.1041 0.6155 -0.6073 -1.1703 -2.7436 1.3310 3.6832 -1.4001 1.0079 3.2144 -3.5036 1.6982 -0.8218 -3.7277 1.6223 2.8088 -1.1161 0.9826 1.8968 2.5883 -1.8943 -0.6026 -0.7779 -0.3798 -1.4693 -1.1536 -0.8781 -2.8421 4.4369 -0.6262 0.4433 1.0810 -1.7751 -0.6023 -2.2386 1.3507 -0.4866 -3.4111 1.5952 1.4018 -2.1723 1.2890 0.9599
1.9357 1.3223 0.9155 6.3970 -1.6481 1.0264 -1.3957 -2.7647 -2.4318 -0.3516 -1.2130 -3.7367 4.4669 -1.3419 -1.3213 1.1264 -1.8189 0.1647 5.0756 -2.2192 0.8261 -1.9837 0.3922 -1.6877 -4.4812 0.5804 1.0488 3.4559 -0.5053 0.5970 0.3557 -0.1365 -1.2278 -2.2494 2.7371 3.0887 -1.1571 2.8265 2.1265 -4.0584 0.1303 -0.2220 -3.3642 2.0345 2.8022 -1.2387 2.2052 0.9332 2.3919 0.2405 -0.0347 -0.9597 -0.6958 -1.4399 -0.8499 -1.5467 -2.6718 4.3329 -1.3058 -0.1028 1.2350 -0.6951 -0.3176 -2.8243 0.6174 -0.4927 -3.4361 1.3691 1.5236 -2.4229 1.4355 0.6342
2.7242 -3.1599 -2.4927 4.3731 1.3112 0.2673 0.3932 1.2057 -2.6900 -1.7842 0.5470 -2.7172 4.4897 -1.6533 1.0937 0.9372 -2.6347 0.3007 5.2050 0.2222 -0.2176 -0.3700 0.3036 0.1766 -3.7194 -0.5342 1.5351 3.7996 -1.4665 -1.1181 1.0264 -1.0093 -1.3500 -4.4716 3.0188 2.2822 -3.1990 3.5718 1.8321 -2.4820 -0.8925 0.9639 -4.7046 1.6930 2.2186 -2.2368 2.7728 1.3263 2.8623 -2.5624 -1.1136 -0.2875 -0.4618 -1.1307 -0.6500 0.4532 -2.2666 4.4553 -1.0545 0.0235 1.5136 -2.0821 -0.6335 -1.7226 0.2130 0.7726 -3.6640 0.8479 1.6866 -2.4880 1.3507 1.2509
3.2483 0.5574 -1.9214 5.3011 -2.1845 2.3530 -0.9217 -2.1009 -3.4229 -2.7517 -2.1056 -2.0775 2.9473 -2.9388 0.6296 0.9405 0.0069 0.4005 4.0036 -1.5358 2.2631 -1.6338 0.7856 -1.9519 -1.4254 3.4514 0.6147 3.5204 -0.7540 0.0793 0.4401 -0.5147 -1.8020 -2.9465 1.2888 3.2199 -3.1554 0.1142 2.3804 -1.2280 2.9529 -0.6910 -2.4005 2.4114 2.7101 -2.8093 0.1275 1.0777 2.7236 -0.6117 -1.1189 -0.9865 -0.5407 -1.6160 -1.6539 -1.6532 -2.3765 3.4459 -1.8539 0.9078 1.2898 -0.3281 -0.7275 -1.6932 1.6837 -0.7753 -2.0318 2.4123 1.3149 -2.2231 1.3299 0.5299
2.9204 -2.8619 -0.9656 6.0625 -0.7756 2.2554 -0.7627 -0.6975 -3.8691 -2.6398 -1.4365 -2.8247 5.7347 -1.0779 -0.7470 0.9746 -1.0224 0.6964 5.4825 0.1506 1.2957 -1.0911 0.8930 -1.2059 -4.5344 1.4066 0.0583 3.6252 -0.8453 0.2101 0.5904 -0.8227 -1.5811 -3.3432 1.8460 3.5438 -1.9214 1.6573 3.2748 -3.6079 1.1771 -0.9792 -4.2497 1.7582 2.5497 -1.4832 1.3863 2.0285 2.7974 -1.3565 -0.8628 -0.8286 -0.5726 -1.4854 -1.5087 -0.9703 -2.7724 4.9894 -0.6633 0.1342 1.3720 -1.0481 -0.4649 -2.3559 1.0956 -0.4694 -3.7687 1.4767 1.2194 -2.4538 1.3036 0.9611
3.1388 -1.8408 -2.6326 6.3237 -1.3247 1.7839 -2.3696 -0.3531 -2.1323 -0.9533 1.4155 -2.3842 6.0474 -1.0319 -1.2381 1.4422 -2.2217 0.1152 6.0469 -2.3333 0.7748 -0.6037 0.4727 0.5586 -3.8492 -0.1906 2.2306 4.0415 -1.8425 -0.3833 0.8814 -0.3701 -1.1582 -5.1835 3.0899 1.1080 -3.9830 3.5461 0.4155 -2.5327 -0.5707 1.8846 -5.2112 1.8918 1.7269 -2.8775 2.7764 0.3753 3.1254 -1.1694 -1.2765 -0.4970 -0.3163 -0.7311 -1.2526 0.3622 -1.8425 5.4035 -1.6335 -0.3852 1.7455 -1.3382 -0.6817 -1.9505 0.4142 1.1614 -4.0217 1.0772 1.6782 -2.9109 1.4907 1.0328
2.7858 -2.9415 -2.1318 4.6103 -0.5373 2.5855 -1.1341 -0.7022 -3.5077 -2.7120 -0.9928 -1.8976 4.7097 0.3543 -0.2731 1.1983 -1.7338 0.3632 5.2955 -1.1794 1.4759 -0.5977 1.3361 -1.1222 -3.4631 3.1018 0.4053 3.8534 -1.8080 -0.2923 0.7785 -0.6005 -1.6165 -3.7968 0.6402 3.1590 -2.6755 -0.2117 2.7781 -2.4636 2.9385 -0.5746 -4.1000 1.7387 2.4392 -1.9273 0.0749 1.6934 2.8966 -1.6460 -1.3612 -0.5453 -0.1673 -1.2566 -1.5774 -0.6728 -2.2296 4.5888 -0.7614 0.2211 1.5502 -1.3468 -0.7467 -1.7265 1.8347 -0.3063 -3.2902 2.0357 1.2831 -2.2577 1.2467 0.9124
3.4890 0.3038 -1.1820 6.2484 -2.2537 1.7225 -1.1486 -0.6553 -3.4341 -2.7695 -1.0621 -1.8923 5.6619 -2.1762 -1.2426 1.1123 -1.5363 0.4690 5.3788 -3.1189 0.9422 -0.9310 1.3784 -0.9814 -1.6476 2.0066 2.6012 3.6683 -1.8499 -0.0851 0.6812 -0.3851 -1.4883 -5.3083 1.9876 1.9941 -5.2531 1.7654 0.5530 -0.7531 1.8039 1.5282 -4.1773 2.0839 2.7218 -4.0693 1.6357 -0.0789 2.9322 -1.1010 -1.0806 -0.6908 -0.1017 -1.1628 -1.6462 -0.6661 -2.1759 4.9467 -2.3326 -0.2591 1.5006 -1.0350 -0.5836 -1.4487 1.6352 0.3787 -2.9178 1.9456 2.0335 -2.8578 1.7275 0.7025
3.2867 0.7995 -2.5405 4.0346 -3.7807 0.6223 -1.3395 -2.8138 -0.2689 -0.7112 -2.3873 -2.4175 4.6335 -0.8757 1.1279 1.5843 1.1730 0.3318 4.9371 -2.9059 -0.1092 -1.2362 0.3773 -1.1869 -4.5126 0.4534 0.5370 3.7949 -1.0360 -1.0319 1.0161 -0.5387 -1.1269 -3.4741 3.2570 2.7342 -2.1216 3.4068 2.2077 -3.6146 -0.0674 -0.4172 -4.3035 2.3166 2.2394 -1.6674 2.6002 1.2267 3.2844 0.3104 -1.1127 -0.3412 -0.7315 -0.6667 -0.7876 -2.0493 -1.2457 4.4445 -1.5035 0.0909 1.8837 0.3634 -0.5437 -2.4290 0.5822 -0.3379 -3.8079 1.4630 1.1871 -2.5532 1.5870 0.7007
3.4295 1.1029 -0.4244 4.2211 -4.1684 0.8256 -1.7806 -2.1862 -1.2334 -0.8348 -1.3194 -3.1189 4.3087 -2.8412 -1.9050 1.5843 -1.6981 0.1949 5.1999 -3.2389 0.2859 -1.3077 1.0605 -1.0827 -1.3870 2.4318 2.3644 4.1840 -1.1751 -0.2882 0.8634 -0.0558 -1.2655 -5.0915 2.6140 2.3739 -5.2995 2.1258 1.0147 -0.7042 1.9640 1.2237 -3.8469 2.7351 2.8772 -4.2547 1.7719 0.2381 3.2222 -0.3071 -0.9309 -0.5348 -0.2345 -0.9622 -1.0542 -1.2674 -1.9181 4.5066 -2.4274 -0.7677 1.8249 -0.7692 -0.5714 -1.5921 1.6219 0.2587 -2.7373 2.3646 2.0329 -2.9195 1.8965 0.7781
2.5806 -3.0068 -1.1333 5.9398 0.2386 1.8115 -2.7242 -1.1232 -2.4611 -0.9875 -0.5602 -3.8250 5.6244 -1.4610 -0.6711 1.0132 -0.7488 0.7633 5.5285 -1.1515 1.7046 -0.8093 1.1786 -1.2175 -3.8853 2.8043 0.0497 3.5637 -1.4200 0.4054 0.5693 -0.8025 -1.5082 -3.7097 1.0085 3.2930 -2.5196 0.2185 2.9975 -2.9050 2.5757 -0.9391 -4.2100 1.8661 2.3808 -1.8802 0.3501 1.8180 2.7190 -1.5465 -0.7625 -0.7926 -0.3252 -1.4087 -1.4663 -0.6763 -2.7068 4.9380 -1.3363 0.3378 1.3558 -1.0032 -0.3881 -2.0082 1.6617 -0.4983 -3.5256 1.9843 1.1160 -2.4088 1.2752 0.8421
3.5611 -0.0077 -2.7023 4.8134 -1.3750 2.5250 -1.2555 -2.2961 -2.3620 -2.6540 -1.7157 -0.6710 3.5061 -3.0330 0.3541 1.9591 0.6381 -0.1261 5.3763 -1.8426 1.2684 -0.9453 0.8330 -1.4423 -3.9349 2.7102 -0.3372 4.1541 -1.0036 -0.5813 0.7492 -0.9216 -1.3508 -3.4961 1.7420 3.2168 -2.2664 0.9771 3.0443 -3.0243 2.2550 -1.3126 -4.0828 2.3456 2.1637 -1.6962 0.8497 1.8291 3.1136 -0.9132 -1.5778 -0.5660 -0.5303 -0.8985 -1.5997 -1.5648 -1.2757 4.2314 -2.0442 0.3208 1.9038 -0.2982 -0.9173 -2.0541 1.5098 -0.7315 -3.4620 2.2020 0.8690 -2.3308 1.4834 0.6953
2.2508 -3.5858 -1.3346 5.1403 -0.2993 2.1849 -2.6077 -0.5123 -2.3941 -0.8771 0.3187 -3.6239 4.7043 -0.1532 -0.7818 1.1244 -1.3857 0.6945 5.5087 -1.2800 1.1767 -0.2853 1.1947 -0.7343 -2.8141 3.3994 0.8077 3.6561 -2.0983 -0.0567 0.6388 -0.9008 -1.5234 -4.3874 0.6300 2.7084 -3.4898 -0.4305 2.2631 -1.7149 3.1434 -0.0359 -4.2160 1.8992 2.2877 -2.4812 -0.1661 1.4083 2.6139 -2.1454 -1.0569 -0.5904 -0.1907 -1.2602 -1.3276 -0.0956 -2.5667 4.5871 -1.0831 0.0091 1.3941 -1.4484 -0.5014 -1.3900 1.8299 0.0124 -3.1321 2.1685 1.3750 -2.3050 1.1916 0.9423
3.8937 0.4633 -2.4903 4.7489 -3.2011 1.5665 -1.2658 -1.0873 -2.5667 -2.3223 -1.4084 -0.5811 3.1891 -3.5163 -1.0161 2.4961 0.2429 0.2619 5.2357 -3.2205 0.1973 -0.5716 1.2460 -0.4519 -2.0148 1.6604 2.9433 4.2735 -1.4582 -1.0652 0.9740 -0.4054 -1.3686 -5.3686 2.4046 1.5351 -4.9950 2.3229 0.1271 -0.9283 1.4043 2.0778 -4.4536 2.2037 2.5052 -3.7257 2.0497 -0.2352 3.2732 -0.7350 -1.8109 -0.2259 -0.2238 -0.5935 -1.3738 -0.9727 -1.2219 4.1047 -2.7725 -0.6800 2.2351 -0.2475 -0.8317 -1.3356 1.4993 0.7899 -3.0978 1.9143 2.1051 -2.7449 1.8372 0.8040
3.1126 -0.9000 -2.9689 7.0294 -2.8751 -0.1397 -0.6932 0.1685 -2.6110 -2.0780 -1.0328 -1.2646 4.8864 -0.9597 0.9226 1.4726 -2.2525 -0.5652 5.6711 -3.1397 0.3040 -0.5675 1.4391 0.2468 -3.0613 0.8388 2.9263 4.1369 -1.9394 -1.0488 1.2059 0.0491 -0.6823 -5.7697 2.3833 0.9121 -4.9520 2.7470 -0.2401 -1.7474 0.7750 2.4142 -5.2224 1.7610 1.9760 -3.6330 2.4677 -0.2685 3.2522 -0.8775 -1.4643 -0.1785 0.0753 -0.2824 -1.0837 -0.3350 -1.4173 4.8862 -1.8763 0.1072 1.8953 -1.1367 -0.8527 -1.7071 1.3424 1.1852 -3.8090 1.4730 1.9377 -3.0458 1.8046 0.8737
3.1301 -1.2854 -2.2683 6.6963 -3.1712 0.0621 -0.5460 -1.2277 -2.7842 -1.7407 -2.2039 -1.1111 6.0480 -0.2814 -0.7294 1.5608 -1.5286 0.6870 6.1564 -2.0793 0.8552 -1.3418 1.0967 -0.9723 -4.8949 0.7068 0.0120 4.0948 -1.3429 -0.0526 0.8653 0.0623 -0.8370 -4.4461 2.7913 3.0465 -3.0281 3.0801 2.8589 -3.8068 0.4765 -0.8543 -5.1123 2.0177 2.1661 -2.3525 2.5798 1.8041 3.1616 -0.6357 -0.9019 -0.5517 -0.1561 -0.6552 -1.0061 -1.3111 -1.5132 5.4573 -1.1420 -0.0855 1.7992 -0.7732 -0.2519 -2.6937 1.0779 -0.3698 -4.3812 1.4946 1.0378 -3.0676 1.7548 0.8569
2.7188 1.6461 -0.0320 6.5968 -2.1916 0.4785 -0.2600 -2.0475 -2.8228 -1.9938 -2.5523 -1.4414 4.0862 -2.3452 -1.1329 1.2849 -1.2475 0.6656 5.2305 -2.2317 0.9723 -1.6998 0.5930 -1.7173 -4.7223 1.6489 0.1495 3.8595 -0.4596 0.2130 0.5675 -0.1108 -1.2221 -2.7492 2.3224 3.2238 -1.4452 1.9454 2.6898 -4.0748 1.1661 -1.0092 -3.8544 2.2683 2.4526 -1.3208 1.5244 1.4163 2.8138 0.2177 -0.5197 -0.8203 -0.4791 -1.1156 -1.0933 -1.7974 -1.7854 4.3513 -1.7039 -0.1219 1.4890 -0.4623 -0.2549 -2.7480 1.0350 -0.7732 -3.7098 1.8073 1.0935 -2.5067 1.4543 0.5935
3.0748 -1.4324 -2.4468 6.0915 -4.0380 0.4289 -2.0378 -1.3599 -1.4306 -0.7802 -0.3893 -3.0676 6.0003 -1.2824 -0.8428 1.2152 -1.8785 0.1909 5.6742 -2.7716 1.0089 -0.9560 1.6425 -0.7072 -2.1854 2.3886 2.7085 3.8455 -1.8656 -0.1909 0.9739 0.1566 -0.8854 -5.7133 1.7928 1.7232 -5.4577 1.4785 0.3214 -1.1532 2.2566 1.7555 -4.6977 2.0968 2.5563 -4.2023 1.4847 -0.1714 3.0972 -0.9412 -1.0150 -0.4602 0.2147 -0.7333 -1.0798 -0.5158 -1.8907 5.2208 -1.8937 -0.1201 1.6802 -0.9647 -0.4860 -1.6764 1.9073 0.5566 -3.3597 2.1027 2.0168 -3.1140 1.8113 0.7207
3.5428 0.4835 -2.6208 5.2655 -2.0437 1.9775 -1.2005 -1.6813 0.7687 -0.8641 -2.3742 -1.3778 3.6141 -3.1548 -0.3121 2.2099 0.1775 0.4018 5.6504 -2.2698 0.5939 -1.4473 0.6874 -1.5521 -4.8456 1.4188 -0.2787 4.2928 -1.0044 -0.8816 0.8350 -0.1196 -1.4386 -3.5756 2.5264 3.0272 -2.1561 2.3401 2.7476 -3.9442 0.9797 -1.2708 -4.5032 2.2592 2.0861 -1.7427 1.8938 1.5447 3.1485 -0.6357 -1.6833 -0.4225 -0.0686 -0.7327 -0.8438 -1.4976 -0.5277 4.3976 -2.2148 -0.2292 2.0455 -0.1413 -0.7718 -2.6724 1.0647 -0.8122 -4.0480 1.7788 0.8040 -2.7362 1.5958 0.5377
2.2395 1.2121 1.1968 6.0738 -2.7728 -0.0372 -0.0810 -1.5008 -3.3699 -1.8298 -2.5533 -2.3648 3.5865 -2.0903 -1.3136 0.6292 -1.3877 0.9028 4.8002 -2.7312 0.6606 -1.7618 0.6037 -1.8131 -1.8313 3.5466 0.4189 3.3523 -0.8674 0.6540 0.4400 -0.2286 -1.1015 -3.2865 1.6117 3.2290 -3.4372 0.3459 2.5191 -1.5683 2.9152 -0.8135 -2.7809 2.6942 2.6048 -3.0655 0.2287 1.2280 2.3917 0.1018 0.1840 -0.9338 -0.5744 -1.3474 -0.9991 -1.6550 -2.3857 3.8732 -1.8677 -0.1421 1.0655 -0.5993 0.0708 -1.9609 1.6210 -0.7603 -2.3985 2.5597 1.2207 -2.5171 1.3876 0.5598
3.5282 0.6950 -2.2138 3.4691 -4.6103 -0.4661 -0.6383 -1.8272 -2.4980 -2.1881 -1.8282 -0.8373 4.5907 -2.1058 0.8273 2.0368 0.3206 0.8836 4.5354 -3.7374 -0.9292 -0.8937 1.0086 -0.8877 -1.5454 2.4952 2.4473 3.7337 -1.5316 -1.2577 1.0753 -0.4071 -1.0975 -5.2169 2.3400 1.9331 -5.1877 1.7711 0.5897 -0.6726 2.0496 1.4330 -4.0725 2.5955 2.5988 -4.0165 1.4814 -0.0126 3.4762 -0.1463 -0.9621 -0.2914 -0.3586 -0.6434 -1.1402 -1.4082 -1.3125 4.2911 -2.3860 -0.3287 2.1304 -0.0475 -0.2855 -1.3874 1.5901 0.3787 -2.8260 2.2900 1.9406 -2.7902 1.7569 0.6999
2.1220 0.2029 2.0553 6.1706 -0.3137 -1.1870 0.7688 -0.8187 -3.0688 -1.1562 -2.0304 -3.0461 4.1165 -2.5200 -0.6007 0.5593 -2.4061 0.6754 4.8524 -0.5530 -1.7515 -1.3809 0.7222 -1.4535 -4.5349 0.7970 0.4902 3.2834 -0.4392 0.0227 0.5408 -0.3740 -0.4403 -2.8262 2.4244 3.3599 -1.4981 2.5025 2.7604 -3.8060 0.4922 -0.6811 -3.8595 1.8803 2.6849 -1.2785 2.0394 1.5141 2.3737 -0.8923 1.0467 -0.6733 -0.5878 -1.1867 -0.3896 -1.2412 -2.5092 4.0672 -1.3000 -0.7159 1.0668 -1.3170 0.4172 -2.5181 0.8793 -0.5273 -3.6120 1.3868 1.3525 -2.3884 1.4663 0.7890
3.4912 1.2692 0.1874 6.9468 -2.5680 -0.6197 -0.5313 -1.5809 -2.5584 -1.5792 -2.4425 -0.7315 4.2204 -2.3431 -2.0385 1.7603 -1.3791 0.8440 5.6115 -2.9380 -0.1803 -1.3560 0.8616 -1.0486 -4.7639 0.5354 0.3689 4.2703 -0.9872 -0.1455 0.8903 -0.0406 -0.8387 -4.1052 3.1930 2.8739 -2.7381 3.4950 2.4635 -3.7684 0.1903 -0.5690 -4.8142 2.2267 2.2563 -2.1543 2.8147 1.4564 3.2467 -0.0414 -0.5256 -0.5037 -0.2903 -0.5581 -0.9197 -1.5572 -1.2605 4.6433 -2.0645 -0.9217 1.9075 -0.5775 -0.0730 -2.6486 0.9155 -0.3353 -4.1851 1.5168 1.1702 -2.9207 1.7921 0.7837
2.5867 -0.1967 1.5925 5.9570 -2.9956 -1.6624 -0.0720 -1.1292 -3.3170 -2.2045 -1.5392 -2.6540 5.5436 -0.9093 0.4105 0.7520 -2.1434 0.1716 5.3394 -3.1712 -0.3587 -1.3967 1.1764 -1.4296 -1.4652 3.0106 1.7808 3.4416 -1.8170 -0.0028 0.6172 -0.1445 -0.9988 -4.8449 1.7560 2.6377 -5.0724 0.9999 1.4103 -0.8567 2.6382 0.5661 -3.6941 2.4323 2.8248 -4.1321 0.9448 0.4444 2.6333 -0.6297 0.1442 -0.8025 -0.2029 -1.2348 -1.1095 -1.0302 -2.4529 4.8161 -1.8286 0.0521 1.2462 -1.0875 -0.2132 -1.6836 1.8271 -0.1345 -2.7040 2.3773 1.7772 -2.8948 1.6625 0.6464
1.7608 -3.8421 -1.1363 4.8053 0.7457 -0.8580 0.4025 0.4508 -3.2263 -1.8228 0.5831 -2.7814 4.3819 -1.4492 1.2418 0.6358 -1.6675 1.1857 5.2687 -0.6321 -0.8293 0.0124 1.1450 -0.1812 -2.6302 3.4040 1.0966 3.3835 -2.0701 -0.7655 0.7595 -1.0241 -1.0381 -4.7305 0.5843 2.2846 -3.8332 -0.4924 1.8801 -1.3978 3.1476 0.4593 -4.3975 1.8734 2.0729 -2.6563 -0.2210 1.2816 2.2413 -2.7517 -0.2106 -0.3265 -0.0743 -1.0151 -0.6792 0.3379 -2.4196 4.3033 -1.4050 0.0186 1.1300 -1.7655 0.0644 -1.1728 1.8130 0.4040 -3.1362 2.1502 1.4288 -2.3020 1.1600 1.0431
2.5424 -2.0271 1.9490 4.8055 -0.3569 -2.9291 0.9045 0.3154 -2.7162 -1.3680 0.2975 -2.6668 3.9982 -3.0494 -1.9308 0.4634 -2.6338 -0.6045 5.3357 -1.0655 -1.7755 -0.3356 1.5232 0.0233 -2.1815 1.0873 3.2040 3.6820 -1.5753 -0.1554 1.0810 -0.4448 -0.1720 -5.4060 1.9849 1.6023 -4.8791 2.2405 0.2655 -0.9936 1.0825 2.4428 -4.5880 1.6092 2.6061 -3.5652 2.0946 0.0013 2.5679 -2.2534 0.4580 -0.1635 0.1520 -0.5880 -0.2914 0.2545 -2.0849 4.2692 -2.0183 -1.3238 1.2627 -1.8117 -0.1605 -1.2669 1.4412 1.1663 -3.1836 1.4628 2.3125 -2.6900 1.6904 1.0765
4.0507 0.2562 -0.0307 6.3933 -4.0162 -0.0411 -2.0014 -1.3007 -0.5302 -1.0612 -0.4826 -2.4401 5.7962 -1.7497 -1.9141 1.5332 -1.7280 0.5965 5.3233 -3.9245 -1.0212 -0.7349 1.7256 -0.2752 -2.6910 2.5458 2.7698 3.8764 -2.0871 -0.6434 1.0694 0.1383 -0.6960 -5.8917 1.6732 1.1021 -5.3303 1.3382 -0.2021 -1.4727 2.4310 2.0645 -5.0958 2.0855 2.1094 -4.0037 1.4271 -0.4249 3.2705 -0.7830 -0.8064 -0.2988 0.2752 -0.2552 -1.1327 -0.5201 -1.2212 5.0552 -2.4662 -1.2495 1.8825 -0.8705 -0.2102 -1.7117 2.0081 0.8005 -3.6772 2.1730 1.8594 -3.1477 1.8513 0.6594
3.5102 -0.4695 -3.3712 4.8954 -3.1088 1.3071 -0.1100 -1.9445 0.3762 -0.4587 -0.2594 1.8575 2.6349 -3.6715 -0.6344 2.9146 0.3743 -0.4514 4.9641 -3.5508 -0.0763 -1.2802 0.7185 -1.0643 -2.4129 3.7793 0.7019 3.9509 -1.9766 -1.5333 0.9089 -0.2835 -1.4198 -5.1574 1.9262 2.3795 -4.9092 0.6317 1.7532 -1.5519 3.1077 -0.1934 -4.3903 2.9949 2.0831 -3.9053 0.4738 0.8672 2.9095 -1.2628 -2.2338 0.0333 0.3017 -0.4354 -0.2037 -0.6390 0.7214 3.7072 -3.0877 -0.7529 2.2811 -0.2982 -1.2588 -1.9251 1.8106 -0.3017 -3.3234 2.8153 1.1283 -3.0821 1.6182 0.5513
4.7101 0.3647 0.2375 3.8593 -4.6443 -2.0001 -1.3471 -1.6235 -0.0197 -0.5622 -0.6687 -1.9359 3.2000 -1.8893 -3.0849 2.3678 -1.5824 0.8687 4.7601 -3.5663 -2.3746 -0.4908 1.4956 0.3590 -2.9967 1.1129 3.0720 4.3410 -1.6284 -1.0750 1.5084 0.2533 -0.2650 -5.6657 2.6161 0.9780 -4.8378 2.9065 -0.1881 -1.6852 0.9925 2.5666 -5.1341 2.0328 2.0711 -3.5281 2.5853 -0.2040 3.7627 -0.3636 -0.6869 0.1657 0.1351 0.2462 -0.5959 -0.7338 -0.7169 3.9948 -2.2836 -2.2380 2.4921 -0.6580 0.0712 -1.6309 1.4811 1.3040 -3.7293 1.7060 2.0472 -2.9581 1.9602 0.9677
2.7442 -3.8866 -0.1070 7.0379 -1.2727 -1.0353 1.2464 1.3804 0.2075 -0.5925 1.6793 -1.0925 4.4170 0.1228 -0.3310 1.3849 -1.7847 -1.9233 5.8996 -0.9482 -1.8787 -1.2232 -0.4502 1.1930 -4.6548 -0.0122 -0.1475 3.9785 -2.0475 -1.0510 0.8658 -1.2610 0.2777 -4.8615 3.4157 1.2624 -3.5570 3.4219 1.9162 -3.4901 -0.7856 0.0508 -5.2893 2.3321 0.5832 -2.7459 2.3476 1.8461 2.9083 -2.3845 -0.1429 -0.2885 -0.4451 0.0022 0.0928 0.9686 -0.3678 4.7025 -0.8776 -0.9799 1.6493 -1.7937 -0.7253 -2.6041 -0.0928 0.8047 -4.4157 1.1862 0.5212 -3.2045 1.1879 1.1173
2.9655 0.7097 -3.1143 3.3428 -4.1727 -0.3617 0.8508 -1.9204 1.2722 -0.2795 -0.3219 2.4294 4.8817 -1.6194 -0.0926 2.3270 1.4673 -0.0351 4.1670 -3.5209 -1.3666 -1.3417 -0.6221 -0.6053 -4.7118 0.0603 0.7673 3.4090 -1.3281 -1.8709 1.0495 -0.2839 -0.8459 -3.9045 3.5962 1.5393 -2.5412 3.5889 1.0197 -3.7388 -0.7755 0.1814 -4.6693 2.4877 1.4797 -2.0150 2.4721 0.4780 3.2638 0.1038 -1.7650 -0.0752 -0.0989 0.0390 0.1542 -0.7643 1.3732 4.2069 -2.0619 -1.0169 2.1796 0.5038 -0.7851 -2.5963 -0.0803 -0.0345 -4.0948 1.3010 0.8943 -2.8298 1.2794 0.4204

>  <OB_ATOM_TYPES> (8gchC1)
C.3 N.3 O.co2 O.co2 O.2 O.2 C.3 C.3 N.ar N.am N.am C.ar C.ar C.ar C.ar C.ar C.3 C.3 C.2 C.2 C.2 C.ar C.ar C.ar

>  <ENSEMBLE_RMSD> (8gchC1)
1.225 1.263 1.385 1.422 1.543 1.576 1.585 1.607 1.666 1.679 1.692 1.707 1.794 1.876 1.911 1.993 2.010 2.024 2.032 2.038 2.040 2.059 2.089 2.127 2.181 2.187 2.196 2.202 2.275 2.280 2.289 2.301 2.325 2.360 2.373 2.373 2.393 2.414 2.504 2.528 2.529 2.546 2.549 2.739 2.855 2.899 3.035 3.045 3.102 3.159

$$$$
